file 1039694 1748327119                                         
version 3
run WLAN_Network-0-20250527-11:55:03-13236
attr configname WLAN_Network
attr datetime 20250527-11:55:03
attr datetimef 20250527-115503
attr experiment WLAN_Network
attr inifile omnetpp.ini
attr iterationvars ""
attr iterationvarsd ""
attr iterationvarsf ""
attr measurement ""
attr network WSN_Network
attr processid 13236
attr repetition 0
attr replication #0
attr resultdir results
attr runnumber 0
attr seedset 0
config image-path ../../inet4.5/images
config **.client.numApps 1
config **.client.app[*].typename TcpSessionApp
config **.client.app[*].active true
config **.client.app[*].localAddress "\"\""
config **.client.app[*].localPort -1
config **.client.app[*].connectAddress "\"server\""
config **.client.app[*].connectPort 1000
config **.client.app[*].tOpen 1.0s
config **.client.app[*].tSend 1.1s
config **.client.app[*].sendBytes 1MiB
config **.client.app[*].sendScript "\"\""
config **.client.app[*].tClose 0s
config **.server.numApps 1
config **.server.app[*].typename TcpEchoApp
config **.server.app[0].localAddress "\"\""
config **.server.app[0].localPort 1000
config **.server.app[0].echoFactor 2.0
config **.server.app[0].echoDelay 0s
config **.eth[*].duplexMode true
config **.ppp[*].queue.typename DropTailQueue
config **.ppp[*].queue.packetCapacity 10
config *.numSensors 50
config **.constraintAreaMinX 0m
config **.constraintAreaMinY 0m
config **.constraintAreaMinZ 0m
config **.constraintAreaMaxX 2500m
config **.constraintAreaMaxY 2500m
config **.constraintAreaMaxZ 50m
config *.Sensor_Node[*].mobility.typename MassMobility
config *.Sensor_Node[*].mobility.changeInterval "truncnormal(2s, 0.5s)"
config *.Sensor_Node[*].mobility.angleDelta "normal(0deg, 30deg)"
config *.Sensor_Node[*].mobility.speed "truncnormal(20mps, 8mps)"
config *.Sensor_Node[*].mobility.updateInterval 100ms
config *.Sensor_Node[*].mobility.initFromDisplayString false
config *.Sensor_Node[*].networkLayer.typename Ipv4NetworkLayer
config *.Sensor_Node[*].networkLayer.ip.routingProtocol.typename OlsrRouting
config *.Sensor_Node[*].networkLayer.ip.forward true
config *.Sensor_Node[0].numApps 0
config *.Sensor_Node[*].numApps 2
config *.Sensor_Node[*].app[*].typename PingApp
config *.Sensor_Node[*].app[*].destAddr "\"Sensor_Node[0]\""
config *.Sensor_Node[*].app[0].startTime uniform(1s,5s)
config *.Sensor_Node[*].app[1].startTime 5s+uniform(1s,5s)
config *.Sensor_Node[*].app[*].printPing true
config *.Sensor_Node[*].wlan[*].radio.transmitter.power 5mW
config network WSN_Network
config sim-time-limit 500s
config total-stack 2MiB

vector 0 WSN_Network.server.lo[0].lo rcvdPkFromHl:vector(packetBytes) ETV
attr interpolationmode none
attr recordingmode vector(packetBytes)
attr source packetReceivedFromUpper
attr title "packets received from higher layer, packetBytes"
vector 1 WSN_Network.server.lo[0].lo passedUpPk:vector(packetBytes) ETV
attr interpolationmode none
attr recordingmode vector(packetBytes)
attr source packetSentToUpper
attr title "packets passed to higher layer, packetBytes"
vector 2 WSN_Network.server.lo[0] packetDropInterfaceDown:vector(packetBytes) ETV
attr interpolationmode none
attr recordingmode vector(packetBytes)
attr source packetDropReasonIsInterfaceDown(packetDropped)
attr title "packet drops: interface down, packetBytes"
vector 3 WSN_Network.server.lo[0] packetDropNoCarrier:vector(packetBytes) ETV
attr interpolationmode none
attr recordingmode vector(packetBytes)
attr source packetDropReasonIsNoCarrier(packetDropped)
attr title "packet drops: no carrier, packetBytes"
vector 4 WSN_Network.server.ipv4.ip packetDropAddressResolutionFailed:vector(packetBytes) ETV
attr interpolationmode none
attr recordingmode vector(packetBytes)
attr source packetDropReasonIsAddressResolutionFailed(packetDropped)
attr title "packet drop: address resolution failed, packetBytes"
vector 5 WSN_Network.server.ipv4.ip packetDropHopLimitReached:vector(packetBytes) ETV
attr interpolationmode none
attr recordingmode vector(packetBytes)
attr source packetDropReasonIsHopLimitReached(packetDropped)
attr title "packet drop: hop limit reached, packetBytes"
vector 6 WSN_Network.server.ipv4.ip packetDropForwardingDisabled:vector(packetBytes) ETV
attr interpolationmode none
attr recordingmode vector(packetBytes)
attr source packetDropReasonIsForwardingDisabled(packetDropped)
attr title "packet drop: forwarding disabled, packetBytes"
vector 7 WSN_Network.server.ipv4.ip packetDropNoInterfaceFound:vector(packetBytes) ETV
attr interpolationmode none
attr recordingmode vector(packetBytes)
attr source packetDropReasonIsNoInterfaceFound(packetDropped)
attr title "packet drop: no interface found, packetBytes"
vector 8 WSN_Network.server.ipv4.ip packetDropNoRouteFound:vector(packetBytes) ETV
attr interpolationmode none
attr recordingmode vector(packetBytes)
attr source packetDropReasonIsNoRouteFound(packetDropped)
attr title "packet drop: no route found, packetBytes"
vector 9 WSN_Network.server.ipv4.ip packetDropUndefined:vector(packetBytes) ETV
attr interpolationmode none
attr recordingmode vector(packetBytes)
attr source packetDropReasonIsUndefined(packetDropped)
attr title "packet drop: undefined, packetBytes"
vector 10 WSN_Network.server.ipv4.arp arpRequestSent:vector(packetBytes) ETV
attr recordingmode vector(packetBytes)
attr source arpRequestSent
attr title "ARP request sent, packetBytes"
vector 11 WSN_Network.server.ipv4.arp arpReplySent:vector(packetBytes) ETV
attr recordingmode vector(packetBytes)
attr source arpReplySent
attr title "ARP replies sent, packetBytes"
vector 12 WSN_Network.server.udp packetSent:vector(packetBytes) ETV
attr interpolationmode none
attr recordingmode vector(packetBytes)
attr source packetSent
attr title "packets sent, packetBytes"
vector 13 WSN_Network.server.udp packetReceived:vector(packetBytes) ETV
attr interpolationmode none
attr recordingmode vector(packetBytes)
attr source packetReceived
attr title "packets received, packetBytes"
vector 14 WSN_Network.server.udp passedUpPk:vector(count) ETV
attr interpolationmode none
attr recordingmode vector(count)
attr source packetSentToUpper
attr title "packets passed up, count"
vector 15 WSN_Network.server.udp droppedPkWrongPort:vector(count) ETV
attr interpolationmode none
attr recordingmode vector(count)
attr source packetDropReasonIsNoPortFound(packetDropped)
attr title "packets dropped (wrong port), count"
vector 16 WSN_Network.server.udp droppedPkBadChecksum:vector(count) ETV
attr interpolationmode none
attr recordingmode vector(count)
attr source packetDropReasonIsIncorrectlyReceived(packetDropped)
attr title "packets dropped (checksum error), count"
vector 17 WSN_Network.server.app[0] packetReceived:vector(packetBytes) ETV
attr interpolationmode none
attr recordingmode vector(packetBytes)
attr source packetReceived
attr title "packets received, packetBytes"
vector 18 WSN_Network.server.app[0] packetSent:vector(packetBytes) ETV
attr interpolationmode none
attr recordingmode vector(packetBytes)
attr source packetSent
attr title "packets sent, packetBytes"
vector 19 WSN_Network.server.app[0] endToEndDelay:vector ETV
attr interpolationmode none
attr recordingmode vector
attr source dataAge(packetReceived)
attr title "end-to-end delay"
attr unit s
vector 20 WSN_Network.Sensor_Node[0].lo[0].lo rcvdPkFromHl:vector(packetBytes) ETV
attr interpolationmode none
attr recordingmode vector(packetBytes)
attr source packetReceivedFromUpper
attr title "packets received from higher layer, packetBytes"
vector 21 WSN_Network.Sensor_Node[0].lo[0].lo passedUpPk:vector(packetBytes) ETV
attr interpolationmode none
attr recordingmode vector(packetBytes)
attr source packetSentToUpper
attr title "packets passed to higher layer, packetBytes"
vector 22 WSN_Network.Sensor_Node[0].lo[0] packetDropInterfaceDown:vector(packetBytes) ETV
attr interpolationmode none
attr recordingmode vector(packetBytes)
attr source packetDropReasonIsInterfaceDown(packetDropped)
attr title "packet drops: interface down, packetBytes"
vector 23 WSN_Network.Sensor_Node[0].lo[0] packetDropNoCarrier:vector(packetBytes) ETV
attr interpolationmode none
attr recordingmode vector(packetBytes)
attr source packetDropReasonIsNoCarrier(packetDropped)
attr title "packet drops: no carrier, packetBytes"
vector 24 WSN_Network.Sensor_Node[0].wlan[0].mac.dcf.channelAccess.pendingQueue queueLength:vector ETV
attr autoWarmupFilter false
attr interpolationmode sample-hold
attr recordingmode vector
attr source "warmup(atomic(constant0(packetPushEnded) + count(packetPushStarted) - count(packetPulled) - count(packetRemoved) - count(packetDropped)))"
attr title "queue length"
attr unit pk
vector 25 WSN_Network.Sensor_Node[0].wlan[0].mac.dcf.channelAccess.pendingQueue queueBitLength:vector ETV
attr autoWarmupFilter false
attr interpolationmode sample-hold
attr recordingmode vector
attr source "warmup(atomic(constant0(packetPushEnded) + sum(packetLength(packetPushStarted)) - sum(packetLength(packetPulled)) - sum(packetLength(packetRemoved)) - sum(packetLength(packetDropped))))"
attr title "queue bit length"
attr unit b
vector 26 WSN_Network.Sensor_Node[0].wlan[0].mac.dcf.channelAccess.pendingQueue queueingTime:vector ETV
attr interpolationmode none
attr recordingmode vector
attr source queueingTime(packetPulled)
attr title "queueing times"
attr unit s
vector 27 WSN_Network.Sensor_Node[0].wlan[0].mac.dcf.channelAccess.pendingQueue incomingPacketLengths:vector ETV
attr interpolationmode none
attr recordingmode vector
attr source packetLength(packetPushStarted)
attr title "incoming packet lengths"
attr unit b
vector 28 WSN_Network.Sensor_Node[0].wlan[0].mac.dcf.channelAccess.pendingQueue incomingDataRate:vector ETV
attr interpolationmode linear
attr recordingmode vector
attr source throughput(packetPushStarted)
attr title "incoming datarate"
attr unit bps
vector 29 WSN_Network.Sensor_Node[0].wlan[0].mac.dcf.channelAccess.pendingQueue outgoingPacketLengths:vector ETV
attr interpolationmode none
attr recordingmode vector
attr source packetLength(packetPulled)
attr title "outgoing packet lengths"
attr unit b
vector 30 WSN_Network.Sensor_Node[0].wlan[0].mac.dcf.channelAccess.pendingQueue outgoingDataRate:vector ETV
attr interpolationmode linear
attr recordingmode vector
attr source throughput(packetPulled)
attr title "outgoing datarate"
attr unit bps
vector 31 WSN_Network.Sensor_Node[0].wlan[0].mac.dcf.channelAccess.pendingQueue droppedPacketLengthsQueueOverflow:vector ETV
attr interpolationmode none
attr recordingmode vector
attr source packetLength(packetDropReasonIsQueueOverflow(packetDropped))
attr title "dropped packet lengths: queue overflow"
attr unit b
vector 32 WSN_Network.Sensor_Node[0].wlan[0].mac.dcf.channelAccess.pendingQueue flowQueueingTime:vector ETV
attr interpolationmode none
attr recordingmode vector
attr source queueingTime(demuxFlow(packetPulled))
attr title "flow queueing times"
attr unit s
vector 33 WSN_Network.Sensor_Node[0].wlan[0].mac.dcf.channelAccess.pendingQueue flowIncomingDataRate:vector ETV
attr interpolationmode linear
attr recordingmode vector
attr source throughput(flowPacketLength(demuxFlow(packetPushStarted)))
attr title "flow specific incoming data rate"
attr unit bps
vector 34 WSN_Network.Sensor_Node[0].wlan[0].mac.dcf.channelAccess.pendingQueue flowOutgoingDataRate:vector ETV
attr interpolationmode linear
attr recordingmode vector
attr source throughput(flowPacketLength(demuxFlow(packetPulled)))
attr title "flow specific outgoing data rate"
attr unit bps
vector 35 WSN_Network.Sensor_Node[0].wlan[0].mac.dcf.channelAccess.inProgressFrames queueingTime:vector ETV
attr interpolationmode none
attr recordingmode vector
attr source queueingTime(packetDequeued)
attr title "queueing times"
vector 36 WSN_Network.Sensor_Node[0].wlan[0].mac.dcf.channelAccess.inProgressFrames queueLength:vector ETV
attr autoWarmupFilter false
attr interpolationmode sample-hold
attr recordingmode vector
attr source "warmup(count(packetEnqueued) - count(packetDequeued))"
attr title "queue length"
vector 37 WSN_Network.Sensor_Node[0].wlan[0].mac.dcf.channelAccess.contention backoffPeriodGenerated:vector ETV
attr interpolationmode none
attr recordingmode vector
attr title "backoff periods"
vector 38 WSN_Network.Sensor_Node[0].wlan[0].mac.dcf.channelAccess.contention backoffActive:vector ETV
attr autoWarmupFilter false
attr interpolationmode sample-hold
attr recordingmode vector
attr source warmup(count(backoffStarted)-count(backoffStopped))
attr title "backoff active"
vector 39 WSN_Network.Sensor_Node[0].wlan[0].mac.dcf.channelAccess.contention stateChanged:vector ETV
attr enum IDLE,DEFER,IFS_AND_BACKOFF
attr interpolationmode none
attr recordingmode vector
attr title "contention state changed"
attr type enum
vector 40 WSN_Network.Sensor_Node[0].wlan[0].mac.dcf.recipientMacDataService packetDropDuplicateDetected:vector(packetBytes) ETV
attr interpolationmode none
attr recordingmode vector(packetBytes)
attr source packetDropReasonIsDuplicateDetected(packetDropped)
attr title "packet drops: duplicate detected, packetBytes"
vector 41 WSN_Network.Sensor_Node[0].wlan[0].mac.dcf.recoveryProcedure contentionWindowChanged:vector ETV
attr interpolationmode sample-hold
attr recordingmode vector
attr title "contention window"
vector 42 WSN_Network.Sensor_Node[0].wlan[0].mac.dcf packetSentToPeer:vector(packetBytes) ETV
attr interpolationmode none
attr recordingmode vector(packetBytes)
attr title "packets sent, packetBytes"
vector 43 WSN_Network.Sensor_Node[0].wlan[0].mac.dcf packetSentToPeerUnicast:vector(packetBytes) ETV
attr interpolationmode none
attr recordingmode vector(packetBytes)
attr source ieee80211Unicast(packetSentToPeer)
attr title "packets sent: unicast, packetBytes"
vector 44 WSN_Network.Sensor_Node[0].wlan[0].mac.dcf packetSentToPeerMulticast:vector(packetBytes) ETV
attr interpolationmode none
attr recordingmode vector(packetBytes)
attr source ieee80211Multicast(packetSentToPeer)
attr title "packets sent: multicast, packetBytes"
vector 45 WSN_Network.Sensor_Node[0].wlan[0].mac.dcf packetSentToPeerBroadcast:vector(packetBytes) ETV
attr interpolationmode none
attr recordingmode vector(packetBytes)
attr source ieee80211Broadcast(packetSentToPeer)
attr title "packets sent: broadcast , packetBytes"
vector 46 WSN_Network.Sensor_Node[0].wlan[0].mac.dcf packetSentToPeerWithRetry:vector(packetBytes) ETV
attr interpolationmode none
attr recordingmode vector(packetBytes)
attr source ieee80211Retry(packetSentToPeer)
attr title "packets sent: with retry, packetBytes"
vector 47 WSN_Network.Sensor_Node[0].wlan[0].mac.dcf packetSentToPeerWithoutRetry:vector(packetBytes) ETV
attr interpolationmode none
attr recordingmode vector(packetBytes)
attr source ieee80211NotRetry(packetSentToPeer)
attr title "packets sent: without retry, packetBytes"
vector 48 WSN_Network.Sensor_Node[0].wlan[0].mac.dcf packetReceivedFromPeer:vector(packetBytes) ETV
attr interpolationmode none
attr recordingmode vector(packetBytes)
attr title "packets received, packetBytes"
vector 49 WSN_Network.Sensor_Node[0].wlan[0].mac.dcf packetReceivedFromPeerUnicast:vector(packetBytes) ETV
attr interpolationmode none
attr recordingmode vector(packetBytes)
attr source ieee80211Unicast(packetReceivedFromPeer)
attr title "packets received: unicast, packetBytes"
vector 50 WSN_Network.Sensor_Node[0].wlan[0].mac.dcf packetReceivedFromPeerMulticast:vector(packetBytes) ETV
attr interpolationmode none
attr recordingmode vector(packetBytes)
attr source ieee80211Multicast(packetReceivedFromPeer)
attr title "packets received: multicast, packetBytes"
vector 51 WSN_Network.Sensor_Node[0].wlan[0].mac.dcf packetReceivedFromPeerBroadcast:vector(packetBytes) ETV
attr interpolationmode none
attr recordingmode vector(packetBytes)
attr source ieee80211Broadcast(packetReceivedFromPeer)
attr title "packets received: broadcast, packetBytes"
vector 52 WSN_Network.Sensor_Node[0].wlan[0].mac.dcf packetReceivedFromPeerWithRetry:vector(packetBytes) ETV
attr interpolationmode none
attr recordingmode vector(packetBytes)
attr source ieee80211Retry(packetReceivedFromPeer)
attr title "packets received: with retry, packetBytes"
vector 53 WSN_Network.Sensor_Node[0].wlan[0].mac.dcf packetReceivedFromPeerWithoutRetry:vector(packetBytes) ETV
attr interpolationmode none
attr recordingmode vector(packetBytes)
attr source ieee80211NotRetry(packetReceivedFromPeer)
attr title "packets received: without retry, packetBytes"
vector 54 WSN_Network.Sensor_Node[0].wlan[0].mac.dcf packetDrop:vector(packetBytes) ETV
attr interpolationmode none
attr recordingmode vector(packetBytes)
attr source packetDropped
attr title "packet drops, packetBytes"
vector 55 WSN_Network.Sensor_Node[0].wlan[0].mac.dcf packetDropNotAddressedToUs:vector(packetBytes) ETV
attr interpolationmode none
attr recordingmode vector(packetBytes)
attr source packetDropReasonIsNotAddressedToUs(packetDropped)
attr title "packet drops: not addressed to us, packetBytes"
vector 56 WSN_Network.Sensor_Node[0].wlan[0].mac.dcf packetDropQueueOverflow:vector(packetBytes) ETV
attr interpolationmode none
attr recordingmode vector(packetBytes)
attr source packetDropReasonIsQueueOverflow(packetDropped)
attr title "packet drops: queue overflow, packetBytes"
vector 57 WSN_Network.Sensor_Node[0].wlan[0].mac.dcf packetDropRetryLimitReached:vector(packetBytes) ETV
attr interpolationmode none
attr recordingmode vector(packetBytes)
attr source packetDropReasonIsRetryLimitReached(packetDropped)
attr title "packet drops: retry limit reached, packetBytes"
vector 58 WSN_Network.Sensor_Node[0].wlan[0].mac.dcf frameSequenceActive:vector ETV
attr autoWarmupFilter false
attr interpolationmode sample-hold
attr recordingmode vector
attr source warmup(count(frameSequenceStarted)-count(frameSequenceFinished))
attr title "frame sequence active"
vector 59 WSN_Network.Sensor_Node[0].wlan[0].mac.dcf datarateSelected:vector ETV
attr interpolationmode none
attr recordingmode vector
attr title "datarates selected"
vector 60 WSN_Network.Sensor_Node[0].wlan[0].mac.rx nav:vector ETV
attr interpolationmode linear
attr recordingmode vector
attr source navChanged
attr title "network allocation vector"
vector 61 WSN_Network.Sensor_Node[0].wlan[0].mac packetSentToUpper:vector(packetBytes) ETV
attr interpolationmode none
attr recordingmode vector(packetBytes)
attr title "packets sent to upper layer, packetBytes"
vector 62 WSN_Network.Sensor_Node[0].wlan[0].mac packetSentToLower:vector(packetBytes) ETV
attr interpolationmode none
attr recordingmode vector(packetBytes)
attr title "packets sent to lower layer, packetBytes"
vector 63 WSN_Network.Sensor_Node[0].wlan[0].mac packetReceivedFromUpper:vector(packetBytes) ETV
attr interpolationmode none
attr recordingmode vector(packetBytes)
attr title "packets received from upper layer, packetBytes"
vector 64 WSN_Network.Sensor_Node[0].wlan[0].mac packetReceivedFromLower:vector(packetBytes) ETV
attr interpolationmode none
attr recordingmode vector(packetBytes)
attr title "packets received from lower layer, packetBytes"
vector 65 WSN_Network.Sensor_Node[0].wlan[0].mac packetDrop:vector(packetBytes) ETV
attr interpolationmode none
attr recordingmode vector(packetBytes)
attr source packetDropped
attr title "packet drops, packetBytes"
vector 66 WSN_Network.Sensor_Node[0].wlan[0].mac packetDropIncorrectlyReceived:vector(packetBytes) ETV
attr interpolationmode none
attr recordingmode vector(packetBytes)
attr source packetDropReasonIsIncorrectlyReceived(packetDropped)
attr title "packet drops: incorrectly received, packetBytes"
vector 67 WSN_Network.Sensor_Node[0].wlan[0].mac packetDropNotAddressedToUs:vector(packetBytes) ETV
attr interpolationmode none
attr recordingmode vector(packetBytes)
attr source packetDropReasonIsNotAddressedToUs(packetDropped)
attr title "packet drops: not addressed to us, packetBytes"
vector 68 WSN_Network.Sensor_Node[0].wlan[0].mac packetDropQueueOverflow:vector(packetBytes) ETV
attr interpolationmode none
attr recordingmode vector(packetBytes)
attr source packetDropReasonIsQueueOverflow(packetDropped)
attr title "packet drops: queue overflow, packetBytes"
vector 69 WSN_Network.Sensor_Node[0].wlan[0].mac packetDropRetryLimitReached:vector(packetBytes) ETV
attr interpolationmode none
attr recordingmode vector(packetBytes)
attr source packetDropReasonIsRetryLimitReached(packetDropped)
attr title "packet drops: retry limit reached, packetBytes"
vector 70 WSN_Network.Sensor_Node[0].wlan[0].mac packetDropDuplicateDetected:vector(packetBytes) ETV
attr interpolationmode none
attr recordingmode vector(packetBytes)
attr source packetDropReasonIsDuplicateDetected(packetDropped)
attr title "packet drops: duplicate detected, packetBytes"
vector 71 WSN_Network.Sensor_Node[0].wlan[0].mac packetDropOther:vector(packetBytes) ETV
attr interpolationmode none
attr recordingmode vector(packetBytes)
attr source packetDropReasonIsOther(packetDropped)
attr title "packet drops: other, packetBytes"
vector 72 WSN_Network.Sensor_Node[0].wlan[0].radio radioMode:vector ETV
attr interpolationmode sample-hold
attr recordingmode vector
attr source radioModeChanged
attr title "Radio mode"
vector 73 WSN_Network.Sensor_Node[0].wlan[0].radio receptionState:vector ETV
attr interpolationmode sample-hold
attr recordingmode vector
attr source receptionStateChanged
attr title "Radio reception state"
vector 74 WSN_Network.Sensor_Node[0].wlan[0].radio transmissionState:vector ETV
attr interpolationmode sample-hold
attr recordingmode vector
attr source transmissionStateChanged
attr title "Radio transmission state"
vector 75 WSN_Network.Sensor_Node[0].wlan[0].radio radioChannel:vector ETV
attr interpolationmode sample-hold
attr recordingmode vector
attr source radioChannelChanged
attr title "Radio channel"
vector 76 WSN_Network.Sensor_Node[0].wlan[0] packetDropInterfaceDown:vector(packetBytes) ETV
attr interpolationmode none
attr recordingmode vector(packetBytes)
attr source packetDropReasonIsInterfaceDown(packetDropped)
attr title "packet drops: interface down, packetBytes"
vector 77 WSN_Network.Sensor_Node[0].wlan[0] packetDropNoCarrier:vector(packetBytes) ETV
attr interpolationmode none
attr recordingmode vector(packetBytes)
attr source packetDropReasonIsNoCarrier(packetDropped)
attr title "packet drops: no carrier, packetBytes"
vector 78 WSN_Network.Sensor_Node[0].ipv4.ip packetDropAddressResolutionFailed:vector(packetBytes) ETV
attr interpolationmode none
attr recordingmode vector(packetBytes)
attr source packetDropReasonIsAddressResolutionFailed(packetDropped)
attr title "packet drop: address resolution failed, packetBytes"
vector 79 WSN_Network.Sensor_Node[0].ipv4.ip packetDropHopLimitReached:vector(packetBytes) ETV
attr interpolationmode none
attr recordingmode vector(packetBytes)
attr source packetDropReasonIsHopLimitReached(packetDropped)
attr title "packet drop: hop limit reached, packetBytes"
vector 80 WSN_Network.Sensor_Node[0].ipv4.ip packetDropForwardingDisabled:vector(packetBytes) ETV
attr interpolationmode none
attr recordingmode vector(packetBytes)
attr source packetDropReasonIsForwardingDisabled(packetDropped)
attr title "packet drop: forwarding disabled, packetBytes"
vector 81 WSN_Network.Sensor_Node[0].ipv4.ip packetDropNoInterfaceFound:vector(packetBytes) ETV
attr interpolationmode none
attr recordingmode vector(packetBytes)
attr source packetDropReasonIsNoInterfaceFound(packetDropped)
attr title "packet drop: no interface found, packetBytes"
vector 82 WSN_Network.Sensor_Node[0].ipv4.ip packetDropNoRouteFound:vector(packetBytes) ETV
attr interpolationmode none
attr recordingmode vector(packetBytes)
attr source packetDropReasonIsNoRouteFound(packetDropped)
attr title "packet drop: no route found, packetBytes"
vector 83 WSN_Network.Sensor_Node[0].ipv4.ip packetDropUndefined:vector(packetBytes) ETV
attr interpolationmode none
attr recordingmode vector(packetBytes)
attr source packetDropReasonIsUndefined(packetDropped)
attr title "packet drop: undefined, packetBytes"
vector 84 WSN_Network.Sensor_Node[0].ipv4.arp arpRequestSent:vector(packetBytes) ETV
attr recordingmode vector(packetBytes)
attr source arpRequestSent
attr title "ARP request sent, packetBytes"
vector 85 WSN_Network.Sensor_Node[0].ipv4.arp arpReplySent:vector(packetBytes) ETV
attr recordingmode vector(packetBytes)
attr source arpReplySent
attr title "ARP replies sent, packetBytes"
vector 86 WSN_Network.Sensor_Node[0].udp packetSent:vector(packetBytes) ETV
attr interpolationmode none
attr recordingmode vector(packetBytes)
attr source packetSent
attr title "packets sent, packetBytes"
vector 87 WSN_Network.Sensor_Node[0].udp packetReceived:vector(packetBytes) ETV
attr interpolationmode none
attr recordingmode vector(packetBytes)
attr source packetReceived
attr title "packets received, packetBytes"
vector 88 WSN_Network.Sensor_Node[0].udp passedUpPk:vector(count) ETV
attr interpolationmode none
attr recordingmode vector(count)
attr source packetSentToUpper
attr title "packets passed up, count"
vector 89 WSN_Network.Sensor_Node[0].udp droppedPkWrongPort:vector(count) ETV
attr interpolationmode none
attr recordingmode vector(count)
attr source packetDropReasonIsNoPortFound(packetDropped)
attr title "packets dropped (wrong port), count"
vector 90 WSN_Network.Sensor_Node[0].udp droppedPkBadChecksum:vector(count) ETV
attr interpolationmode none
attr recordingmode vector(count)
attr source packetDropReasonIsIncorrectlyReceived(packetDropped)
attr title "packets dropped (checksum error), count"
vector 91 WSN_Network.Sensor_Node[1].lo[0].lo rcvdPkFromHl:vector(packetBytes) ETV
attr interpolationmode none
attr recordingmode vector(packetBytes)
attr source packetReceivedFromUpper
attr title "packets received from higher layer, packetBytes"
vector 92 WSN_Network.Sensor_Node[1].lo[0].lo passedUpPk:vector(packetBytes) ETV
attr interpolationmode none
attr recordingmode vector(packetBytes)
attr source packetSentToUpper
attr title "packets passed to higher layer, packetBytes"
vector 93 WSN_Network.Sensor_Node[1].lo[0] packetDropInterfaceDown:vector(packetBytes) ETV
attr interpolationmode none
attr recordingmode vector(packetBytes)
attr source packetDropReasonIsInterfaceDown(packetDropped)
attr title "packet drops: interface down, packetBytes"
vector 94 WSN_Network.Sensor_Node[1].lo[0] packetDropNoCarrier:vector(packetBytes) ETV
attr interpolationmode none
attr recordingmode vector(packetBytes)
attr source packetDropReasonIsNoCarrier(packetDropped)
attr title "packet drops: no carrier, packetBytes"
vector 95 WSN_Network.Sensor_Node[1].wlan[0].mac.dcf.channelAccess.pendingQueue queueLength:vector ETV
attr autoWarmupFilter false
attr interpolationmode sample-hold
attr recordingmode vector
attr source "warmup(atomic(constant0(packetPushEnded) + count(packetPushStarted) - count(packetPulled) - count(packetRemoved) - count(packetDropped)))"
attr title "queue length"
attr unit pk
vector 96 WSN_Network.Sensor_Node[1].wlan[0].mac.dcf.channelAccess.pendingQueue queueBitLength:vector ETV
attr autoWarmupFilter false
attr interpolationmode sample-hold
attr recordingmode vector
attr source "warmup(atomic(constant0(packetPushEnded) + sum(packetLength(packetPushStarted)) - sum(packetLength(packetPulled)) - sum(packetLength(packetRemoved)) - sum(packetLength(packetDropped))))"
attr title "queue bit length"
attr unit b
vector 97 WSN_Network.Sensor_Node[1].wlan[0].mac.dcf.channelAccess.pendingQueue queueingTime:vector ETV
attr interpolationmode none
attr recordingmode vector
attr source queueingTime(packetPulled)
attr title "queueing times"
attr unit s
vector 98 WSN_Network.Sensor_Node[1].wlan[0].mac.dcf.channelAccess.pendingQueue incomingPacketLengths:vector ETV
attr interpolationmode none
attr recordingmode vector
attr source packetLength(packetPushStarted)
attr title "incoming packet lengths"
attr unit b
vector 99 WSN_Network.Sensor_Node[1].wlan[0].mac.dcf.channelAccess.pendingQueue incomingDataRate:vector ETV
attr interpolationmode linear
attr recordingmode vector
attr source throughput(packetPushStarted)
attr title "incoming datarate"
attr unit bps
vector 100 WSN_Network.Sensor_Node[1].wlan[0].mac.dcf.channelAccess.pendingQueue outgoingPacketLengths:vector ETV
attr interpolationmode none
attr recordingmode vector
attr source packetLength(packetPulled)
attr title "outgoing packet lengths"
attr unit b
vector 101 WSN_Network.Sensor_Node[1].wlan[0].mac.dcf.channelAccess.pendingQueue outgoingDataRate:vector ETV
attr interpolationmode linear
attr recordingmode vector
attr source throughput(packetPulled)
attr title "outgoing datarate"
attr unit bps
vector 102 WSN_Network.Sensor_Node[1].wlan[0].mac.dcf.channelAccess.pendingQueue droppedPacketLengthsQueueOverflow:vector ETV
attr interpolationmode none
attr recordingmode vector
attr source packetLength(packetDropReasonIsQueueOverflow(packetDropped))
attr title "dropped packet lengths: queue overflow"
attr unit b
vector 103 WSN_Network.Sensor_Node[1].wlan[0].mac.dcf.channelAccess.pendingQueue flowQueueingTime:vector ETV
attr interpolationmode none
attr recordingmode vector
attr source queueingTime(demuxFlow(packetPulled))
attr title "flow queueing times"
attr unit s
vector 104 WSN_Network.Sensor_Node[1].wlan[0].mac.dcf.channelAccess.pendingQueue flowIncomingDataRate:vector ETV
attr interpolationmode linear
attr recordingmode vector
attr source throughput(flowPacketLength(demuxFlow(packetPushStarted)))
attr title "flow specific incoming data rate"
attr unit bps
vector 105 WSN_Network.Sensor_Node[1].wlan[0].mac.dcf.channelAccess.pendingQueue flowOutgoingDataRate:vector ETV
attr interpolationmode linear
attr recordingmode vector
attr source throughput(flowPacketLength(demuxFlow(packetPulled)))
attr title "flow specific outgoing data rate"
attr unit bps
vector 106 WSN_Network.Sensor_Node[1].wlan[0].mac.dcf.channelAccess.inProgressFrames queueingTime:vector ETV
attr interpolationmode none
attr recordingmode vector
attr source queueingTime(packetDequeued)
attr title "queueing times"
vector 107 WSN_Network.Sensor_Node[1].wlan[0].mac.dcf.channelAccess.inProgressFrames queueLength:vector ETV
attr autoWarmupFilter false
attr interpolationmode sample-hold
attr recordingmode vector
attr source "warmup(count(packetEnqueued) - count(packetDequeued))"
attr title "queue length"
vector 108 WSN_Network.Sensor_Node[1].wlan[0].mac.dcf.channelAccess.contention backoffPeriodGenerated:vector ETV
attr interpolationmode none
attr recordingmode vector
attr title "backoff periods"
vector 109 WSN_Network.Sensor_Node[1].wlan[0].mac.dcf.channelAccess.contention backoffActive:vector ETV
attr autoWarmupFilter false
attr interpolationmode sample-hold
attr recordingmode vector
attr source warmup(count(backoffStarted)-count(backoffStopped))
attr title "backoff active"
vector 110 WSN_Network.Sensor_Node[1].wlan[0].mac.dcf.channelAccess.contention stateChanged:vector ETV
attr enum IDLE,DEFER,IFS_AND_BACKOFF
attr interpolationmode none
attr recordingmode vector
attr title "contention state changed"
attr type enum
vector 111 WSN_Network.Sensor_Node[1].wlan[0].mac.dcf.recipientMacDataService packetDropDuplicateDetected:vector(packetBytes) ETV
attr interpolationmode none
attr recordingmode vector(packetBytes)
attr source packetDropReasonIsDuplicateDetected(packetDropped)
attr title "packet drops: duplicate detected, packetBytes"
vector 112 WSN_Network.Sensor_Node[1].wlan[0].mac.dcf.recoveryProcedure contentionWindowChanged:vector ETV
attr interpolationmode sample-hold
attr recordingmode vector
attr title "contention window"
vector 113 WSN_Network.Sensor_Node[1].wlan[0].mac.dcf packetSentToPeer:vector(packetBytes) ETV
attr interpolationmode none
attr recordingmode vector(packetBytes)
attr title "packets sent, packetBytes"
vector 114 WSN_Network.Sensor_Node[1].wlan[0].mac.dcf packetSentToPeerUnicast:vector(packetBytes) ETV
attr interpolationmode none
attr recordingmode vector(packetBytes)
attr source ieee80211Unicast(packetSentToPeer)
attr title "packets sent: unicast, packetBytes"
vector 115 WSN_Network.Sensor_Node[1].wlan[0].mac.dcf packetSentToPeerMulticast:vector(packetBytes) ETV
attr interpolationmode none
attr recordingmode vector(packetBytes)
attr source ieee80211Multicast(packetSentToPeer)
attr title "packets sent: multicast, packetBytes"
vector 116 WSN_Network.Sensor_Node[1].wlan[0].mac.dcf packetSentToPeerBroadcast:vector(packetBytes) ETV
attr interpolationmode none
attr recordingmode vector(packetBytes)
attr source ieee80211Broadcast(packetSentToPeer)
attr title "packets sent: broadcast , packetBytes"
vector 117 WSN_Network.Sensor_Node[1].wlan[0].mac.dcf packetSentToPeerWithRetry:vector(packetBytes) ETV
attr interpolationmode none
attr recordingmode vector(packetBytes)
attr source ieee80211Retry(packetSentToPeer)
attr title "packets sent: with retry, packetBytes"
vector 118 WSN_Network.Sensor_Node[1].wlan[0].mac.dcf packetSentToPeerWithoutRetry:vector(packetBytes) ETV
attr interpolationmode none
attr recordingmode vector(packetBytes)
attr source ieee80211NotRetry(packetSentToPeer)
attr title "packets sent: without retry, packetBytes"
vector 119 WSN_Network.Sensor_Node[1].wlan[0].mac.dcf packetReceivedFromPeer:vector(packetBytes) ETV
attr interpolationmode none
attr recordingmode vector(packetBytes)
attr title "packets received, packetBytes"
vector 120 WSN_Network.Sensor_Node[1].wlan[0].mac.dcf packetReceivedFromPeerUnicast:vector(packetBytes) ETV
attr interpolationmode none
attr recordingmode vector(packetBytes)
attr source ieee80211Unicast(packetReceivedFromPeer)
attr title "packets received: unicast, packetBytes"
vector 121 WSN_Network.Sensor_Node[1].wlan[0].mac.dcf packetReceivedFromPeerMulticast:vector(packetBytes) ETV
attr interpolationmode none
attr recordingmode vector(packetBytes)
attr source ieee80211Multicast(packetReceivedFromPeer)
attr title "packets received: multicast, packetBytes"
vector 122 WSN_Network.Sensor_Node[1].wlan[0].mac.dcf packetReceivedFromPeerBroadcast:vector(packetBytes) ETV
attr interpolationmode none
attr recordingmode vector(packetBytes)
attr source ieee80211Broadcast(packetReceivedFromPeer)
attr title "packets received: broadcast, packetBytes"
vector 123 WSN_Network.Sensor_Node[1].wlan[0].mac.dcf packetReceivedFromPeerWithRetry:vector(packetBytes) ETV
attr interpolationmode none
attr recordingmode vector(packetBytes)
attr source ieee80211Retry(packetReceivedFromPeer)
attr title "packets received: with retry, packetBytes"
vector 124 WSN_Network.Sensor_Node[1].wlan[0].mac.dcf packetReceivedFromPeerWithoutRetry:vector(packetBytes) ETV
attr interpolationmode none
attr recordingmode vector(packetBytes)
attr source ieee80211NotRetry(packetReceivedFromPeer)
attr title "packets received: without retry, packetBytes"
vector 125 WSN_Network.Sensor_Node[1].wlan[0].mac.dcf packetDrop:vector(packetBytes) ETV
attr interpolationmode none
attr recordingmode vector(packetBytes)
attr source packetDropped
attr title "packet drops, packetBytes"
vector 126 WSN_Network.Sensor_Node[1].wlan[0].mac.dcf packetDropNotAddressedToUs:vector(packetBytes) ETV
attr interpolationmode none
attr recordingmode vector(packetBytes)
attr source packetDropReasonIsNotAddressedToUs(packetDropped)
attr title "packet drops: not addressed to us, packetBytes"
vector 127 WSN_Network.Sensor_Node[1].wlan[0].mac.dcf packetDropQueueOverflow:vector(packetBytes) ETV
attr interpolationmode none
attr recordingmode vector(packetBytes)
attr source packetDropReasonIsQueueOverflow(packetDropped)
attr title "packet drops: queue overflow, packetBytes"
vector 128 WSN_Network.Sensor_Node[1].wlan[0].mac.dcf packetDropRetryLimitReached:vector(packetBytes) ETV
attr interpolationmode none
attr recordingmode vector(packetBytes)
attr source packetDropReasonIsRetryLimitReached(packetDropped)
attr title "packet drops: retry limit reached, packetBytes"
vector 129 WSN_Network.Sensor_Node[1].wlan[0].mac.dcf frameSequenceActive:vector ETV
attr autoWarmupFilter false
attr interpolationmode sample-hold
attr recordingmode vector
attr source warmup(count(frameSequenceStarted)-count(frameSequenceFinished))
attr title "frame sequence active"
vector 130 WSN_Network.Sensor_Node[1].wlan[0].mac.dcf datarateSelected:vector ETV
attr interpolationmode none
attr recordingmode vector
attr title "datarates selected"
vector 131 WSN_Network.Sensor_Node[1].wlan[0].mac.rx nav:vector ETV
attr interpolationmode linear
attr recordingmode vector
attr source navChanged
attr title "network allocation vector"
vector 132 WSN_Network.Sensor_Node[1].wlan[0].mac packetSentToUpper:vector(packetBytes) ETV
attr interpolationmode none
attr recordingmode vector(packetBytes)
attr title "packets sent to upper layer, packetBytes"
vector 133 WSN_Network.Sensor_Node[1].wlan[0].mac packetSentToLower:vector(packetBytes) ETV
attr interpolationmode none
attr recordingmode vector(packetBytes)
attr title "packets sent to lower layer, packetBytes"
vector 134 WSN_Network.Sensor_Node[1].wlan[0].mac packetReceivedFromUpper:vector(packetBytes) ETV
attr interpolationmode none
attr recordingmode vector(packetBytes)
attr title "packets received from upper layer, packetBytes"
vector 135 WSN_Network.Sensor_Node[1].wlan[0].mac packetReceivedFromLower:vector(packetBytes) ETV
attr interpolationmode none
attr recordingmode vector(packetBytes)
attr title "packets received from lower layer, packetBytes"
vector 136 WSN_Network.Sensor_Node[1].wlan[0].mac packetDrop:vector(packetBytes) ETV
attr interpolationmode none
attr recordingmode vector(packetBytes)
attr source packetDropped
attr title "packet drops, packetBytes"
vector 137 WSN_Network.Sensor_Node[1].wlan[0].mac packetDropIncorrectlyReceived:vector(packetBytes) ETV
attr interpolationmode none
attr recordingmode vector(packetBytes)
attr source packetDropReasonIsIncorrectlyReceived(packetDropped)
attr title "packet drops: incorrectly received, packetBytes"
vector 138 WSN_Network.Sensor_Node[1].wlan[0].mac packetDropNotAddressedToUs:vector(packetBytes) ETV
attr interpolationmode none
attr recordingmode vector(packetBytes)
attr source packetDropReasonIsNotAddressedToUs(packetDropped)
attr title "packet drops: not addressed to us, packetBytes"
vector 139 WSN_Network.Sensor_Node[1].wlan[0].mac packetDropQueueOverflow:vector(packetBytes) ETV
attr interpolationmode none
attr recordingmode vector(packetBytes)
attr source packetDropReasonIsQueueOverflow(packetDropped)
attr title "packet drops: queue overflow, packetBytes"
vector 140 WSN_Network.Sensor_Node[1].wlan[0].mac packetDropRetryLimitReached:vector(packetBytes) ETV
attr interpolationmode none
attr recordingmode vector(packetBytes)
attr source packetDropReasonIsRetryLimitReached(packetDropped)
attr title "packet drops: retry limit reached, packetBytes"
vector 141 WSN_Network.Sensor_Node[1].wlan[0].mac packetDropDuplicateDetected:vector(packetBytes) ETV
attr interpolationmode none
attr recordingmode vector(packetBytes)
attr source packetDropReasonIsDuplicateDetected(packetDropped)
attr title "packet drops: duplicate detected, packetBytes"
vector 142 WSN_Network.Sensor_Node[1].wlan[0].mac packetDropOther:vector(packetBytes) ETV
attr interpolationmode none
attr recordingmode vector(packetBytes)
attr source packetDropReasonIsOther(packetDropped)
attr title "packet drops: other, packetBytes"
vector 143 WSN_Network.Sensor_Node[1].wlan[0].radio radioMode:vector ETV
attr interpolationmode sample-hold
attr recordingmode vector
attr source radioModeChanged
attr title "Radio mode"
vector 144 WSN_Network.Sensor_Node[1].wlan[0].radio receptionState:vector ETV
attr interpolationmode sample-hold
attr recordingmode vector
attr source receptionStateChanged
attr title "Radio reception state"
vector 145 WSN_Network.Sensor_Node[1].wlan[0].radio transmissionState:vector ETV
attr interpolationmode sample-hold
attr recordingmode vector
attr source transmissionStateChanged
attr title "Radio transmission state"
vector 146 WSN_Network.Sensor_Node[1].wlan[0].radio radioChannel:vector ETV
attr interpolationmode sample-hold
attr recordingmode vector
attr source radioChannelChanged
attr title "Radio channel"
vector 147 WSN_Network.Sensor_Node[1].wlan[0] packetDropInterfaceDown:vector(packetBytes) ETV
attr interpolationmode none
attr recordingmode vector(packetBytes)
attr source packetDropReasonIsInterfaceDown(packetDropped)
attr title "packet drops: interface down, packetBytes"
vector 148 WSN_Network.Sensor_Node[1].wlan[0] packetDropNoCarrier:vector(packetBytes) ETV
attr interpolationmode none
attr recordingmode vector(packetBytes)
attr source packetDropReasonIsNoCarrier(packetDropped)
attr title "packet drops: no carrier, packetBytes"
vector 149 WSN_Network.Sensor_Node[1].ipv4.ip packetDropAddressResolutionFailed:vector(packetBytes) ETV
attr interpolationmode none
attr recordingmode vector(packetBytes)
attr source packetDropReasonIsAddressResolutionFailed(packetDropped)
attr title "packet drop: address resolution failed, packetBytes"
vector 150 WSN_Network.Sensor_Node[1].ipv4.ip packetDropHopLimitReached:vector(packetBytes) ETV
attr interpolationmode none
attr recordingmode vector(packetBytes)
attr source packetDropReasonIsHopLimitReached(packetDropped)
attr title "packet drop: hop limit reached, packetBytes"
vector 151 WSN_Network.Sensor_Node[1].ipv4.ip packetDropForwardingDisabled:vector(packetBytes) ETV
attr interpolationmode none
attr recordingmode vector(packetBytes)
attr source packetDropReasonIsForwardingDisabled(packetDropped)
attr title "packet drop: forwarding disabled, packetBytes"
vector 152 WSN_Network.Sensor_Node[1].ipv4.ip packetDropNoInterfaceFound:vector(packetBytes) ETV
attr interpolationmode none
attr recordingmode vector(packetBytes)
attr source packetDropReasonIsNoInterfaceFound(packetDropped)
attr title "packet drop: no interface found, packetBytes"
vector 153 WSN_Network.Sensor_Node[1].ipv4.ip packetDropNoRouteFound:vector(packetBytes) ETV
attr interpolationmode none
attr recordingmode vector(packetBytes)
attr source packetDropReasonIsNoRouteFound(packetDropped)
attr title "packet drop: no route found, packetBytes"
vector 154 WSN_Network.Sensor_Node[1].ipv4.ip packetDropUndefined:vector(packetBytes) ETV
attr interpolationmode none
attr recordingmode vector(packetBytes)
attr source packetDropReasonIsUndefined(packetDropped)
attr title "packet drop: undefined, packetBytes"
vector 155 WSN_Network.Sensor_Node[1].ipv4.arp arpRequestSent:vector(packetBytes) ETV
attr recordingmode vector(packetBytes)
attr source arpRequestSent
attr title "ARP request sent, packetBytes"
vector 156 WSN_Network.Sensor_Node[1].ipv4.arp arpReplySent:vector(packetBytes) ETV
attr recordingmode vector(packetBytes)
attr source arpReplySent
attr title "ARP replies sent, packetBytes"
vector 157 WSN_Network.Sensor_Node[1].udp packetSent:vector(packetBytes) ETV
attr interpolationmode none
attr recordingmode vector(packetBytes)
attr source packetSent
attr title "packets sent, packetBytes"
vector 158 WSN_Network.Sensor_Node[1].udp packetReceived:vector(packetBytes) ETV
attr interpolationmode none
attr recordingmode vector(packetBytes)
attr source packetReceived
attr title "packets received, packetBytes"
vector 159 WSN_Network.Sensor_Node[1].udp passedUpPk:vector(count) ETV
attr interpolationmode none
attr recordingmode vector(count)
attr source packetSentToUpper
attr title "packets passed up, count"
vector 160 WSN_Network.Sensor_Node[1].udp droppedPkWrongPort:vector(count) ETV
attr interpolationmode none
attr recordingmode vector(count)
attr source packetDropReasonIsNoPortFound(packetDropped)
attr title "packets dropped (wrong port), count"
vector 161 WSN_Network.Sensor_Node[1].udp droppedPkBadChecksum:vector(count) ETV
attr interpolationmode none
attr recordingmode vector(count)
attr source packetDropReasonIsIncorrectlyReceived(packetDropped)
attr title "packets dropped (checksum error), count"
vector 162 WSN_Network.Sensor_Node[1].app[0] rtt:vector ETV
attr interpolationmode none
attr recordingmode vector
attr title "ping round-trip time"
attr unit s
vector 163 WSN_Network.Sensor_Node[1].app[0] numLost:vector ETV
attr interpolationmode none
attr recordingmode vector
attr title "pings lost"
vector 164 WSN_Network.Sensor_Node[1].app[0] numOutOfOrderArrivals:vector ETV
attr interpolationmode none
attr recordingmode vector
attr title "ping out-of-order arrivals"
vector 165 WSN_Network.Sensor_Node[1].app[0] pingTxSeq:vector ETV
attr interpolationmode none
attr recordingmode vector
attr title "ping tx seq"
vector 166 WSN_Network.Sensor_Node[1].app[0] pingRxSeq:vector ETV
attr interpolationmode none
attr recordingmode vector
attr title "ping rx seq"
vector 167 WSN_Network.Sensor_Node[1].app[1] rtt:vector ETV
attr interpolationmode none
attr recordingmode vector
attr title "ping round-trip time"
attr unit s
vector 168 WSN_Network.Sensor_Node[1].app[1] numLost:vector ETV
attr interpolationmode none
attr recordingmode vector
attr title "pings lost"
vector 169 WSN_Network.Sensor_Node[1].app[1] numOutOfOrderArrivals:vector ETV
attr interpolationmode none
attr recordingmode vector
attr title "ping out-of-order arrivals"
vector 170 WSN_Network.Sensor_Node[1].app[1] pingTxSeq:vector ETV
attr interpolationmode none
attr recordingmode vector
attr title "ping tx seq"
vector 171 WSN_Network.Sensor_Node[1].app[1] pingRxSeq:vector ETV
attr interpolationmode none
attr recordingmode vector
attr title "ping rx seq"
vector 172 WSN_Network.Sensor_Node[2].lo[0].lo rcvdPkFromHl:vector(packetBytes) ETV
attr interpolationmode none
attr recordingmode vector(packetBytes)
attr source packetReceivedFromUpper
attr title "packets received from higher layer, packetBytes"
vector 173 WSN_Network.Sensor_Node[2].lo[0].lo passedUpPk:vector(packetBytes) ETV
attr interpolationmode none
attr recordingmode vector(packetBytes)
attr source packetSentToUpper
attr title "packets passed to higher layer, packetBytes"
vector 174 WSN_Network.Sensor_Node[2].lo[0] packetDropInterfaceDown:vector(packetBytes) ETV
attr interpolationmode none
attr recordingmode vector(packetBytes)
attr source packetDropReasonIsInterfaceDown(packetDropped)
attr title "packet drops: interface down, packetBytes"
vector 175 WSN_Network.Sensor_Node[2].lo[0] packetDropNoCarrier:vector(packetBytes) ETV
attr interpolationmode none
attr recordingmode vector(packetBytes)
attr source packetDropReasonIsNoCarrier(packetDropped)
attr title "packet drops: no carrier, packetBytes"
vector 176 WSN_Network.Sensor_Node[2].wlan[0].mac.dcf.channelAccess.pendingQueue queueLength:vector ETV
attr autoWarmupFilter false
attr interpolationmode sample-hold
attr recordingmode vector
attr source "warmup(atomic(constant0(packetPushEnded) + count(packetPushStarted) - count(packetPulled) - count(packetRemoved) - count(packetDropped)))"
attr title "queue length"
attr unit pk
vector 177 WSN_Network.Sensor_Node[2].wlan[0].mac.dcf.channelAccess.pendingQueue queueBitLength:vector ETV
attr autoWarmupFilter false
attr interpolationmode sample-hold
attr recordingmode vector
attr source "warmup(atomic(constant0(packetPushEnded) + sum(packetLength(packetPushStarted)) - sum(packetLength(packetPulled)) - sum(packetLength(packetRemoved)) - sum(packetLength(packetDropped))))"
attr title "queue bit length"
attr unit b
vector 178 WSN_Network.Sensor_Node[2].wlan[0].mac.dcf.channelAccess.pendingQueue queueingTime:vector ETV
attr interpolationmode none
attr recordingmode vector
attr source queueingTime(packetPulled)
attr title "queueing times"
attr unit s
vector 179 WSN_Network.Sensor_Node[2].wlan[0].mac.dcf.channelAccess.pendingQueue incomingPacketLengths:vector ETV
attr interpolationmode none
attr recordingmode vector
attr source packetLength(packetPushStarted)
attr title "incoming packet lengths"
attr unit b
vector 180 WSN_Network.Sensor_Node[2].wlan[0].mac.dcf.channelAccess.pendingQueue incomingDataRate:vector ETV
attr interpolationmode linear
attr recordingmode vector
attr source throughput(packetPushStarted)
attr title "incoming datarate"
attr unit bps
vector 181 WSN_Network.Sensor_Node[2].wlan[0].mac.dcf.channelAccess.pendingQueue outgoingPacketLengths:vector ETV
attr interpolationmode none
attr recordingmode vector
attr source packetLength(packetPulled)
attr title "outgoing packet lengths"
attr unit b
vector 182 WSN_Network.Sensor_Node[2].wlan[0].mac.dcf.channelAccess.pendingQueue outgoingDataRate:vector ETV
attr interpolationmode linear
attr recordingmode vector
attr source throughput(packetPulled)
attr title "outgoing datarate"
attr unit bps
vector 183 WSN_Network.Sensor_Node[2].wlan[0].mac.dcf.channelAccess.pendingQueue droppedPacketLengthsQueueOverflow:vector ETV
attr interpolationmode none
attr recordingmode vector
attr source packetLength(packetDropReasonIsQueueOverflow(packetDropped))
attr title "dropped packet lengths: queue overflow"
attr unit b
vector 184 WSN_Network.Sensor_Node[2].wlan[0].mac.dcf.channelAccess.pendingQueue flowQueueingTime:vector ETV
attr interpolationmode none
attr recordingmode vector
attr source queueingTime(demuxFlow(packetPulled))
attr title "flow queueing times"
attr unit s
vector 185 WSN_Network.Sensor_Node[2].wlan[0].mac.dcf.channelAccess.pendingQueue flowIncomingDataRate:vector ETV
attr interpolationmode linear
attr recordingmode vector
attr source throughput(flowPacketLength(demuxFlow(packetPushStarted)))
attr title "flow specific incoming data rate"
attr unit bps
vector 186 WSN_Network.Sensor_Node[2].wlan[0].mac.dcf.channelAccess.pendingQueue flowOutgoingDataRate:vector ETV
attr interpolationmode linear
attr recordingmode vector
attr source throughput(flowPacketLength(demuxFlow(packetPulled)))
attr title "flow specific outgoing data rate"
attr unit bps
vector 187 WSN_Network.Sensor_Node[2].wlan[0].mac.dcf.channelAccess.inProgressFrames queueingTime:vector ETV
attr interpolationmode none
attr recordingmode vector
attr source queueingTime(packetDequeued)
attr title "queueing times"
vector 188 WSN_Network.Sensor_Node[2].wlan[0].mac.dcf.channelAccess.inProgressFrames queueLength:vector ETV
attr autoWarmupFilter false
attr interpolationmode sample-hold
attr recordingmode vector
attr source "warmup(count(packetEnqueued) - count(packetDequeued))"
attr title "queue length"
vector 189 WSN_Network.Sensor_Node[2].wlan[0].mac.dcf.channelAccess.contention backoffPeriodGenerated:vector ETV
attr interpolationmode none
attr recordingmode vector
attr title "backoff periods"
vector 190 WSN_Network.Sensor_Node[2].wlan[0].mac.dcf.channelAccess.contention backoffActive:vector ETV
attr autoWarmupFilter false
attr interpolationmode sample-hold
attr recordingmode vector
attr source warmup(count(backoffStarted)-count(backoffStopped))
attr title "backoff active"
vector 191 WSN_Network.Sensor_Node[2].wlan[0].mac.dcf.channelAccess.contention stateChanged:vector ETV
attr enum IDLE,DEFER,IFS_AND_BACKOFF
attr interpolationmode none
attr recordingmode vector
attr title "contention state changed"
attr type enum
vector 192 WSN_Network.Sensor_Node[2].wlan[0].mac.dcf.recipientMacDataService packetDropDuplicateDetected:vector(packetBytes) ETV
attr interpolationmode none
attr recordingmode vector(packetBytes)
attr source packetDropReasonIsDuplicateDetected(packetDropped)
attr title "packet drops: duplicate detected, packetBytes"
vector 193 WSN_Network.Sensor_Node[2].wlan[0].mac.dcf.recoveryProcedure contentionWindowChanged:vector ETV
attr interpolationmode sample-hold
attr recordingmode vector
attr title "contention window"
vector 194 WSN_Network.Sensor_Node[2].wlan[0].mac.dcf packetSentToPeer:vector(packetBytes) ETV
attr interpolationmode none
attr recordingmode vector(packetBytes)
attr title "packets sent, packetBytes"
vector 195 WSN_Network.Sensor_Node[2].wlan[0].mac.dcf packetSentToPeerUnicast:vector(packetBytes) ETV
attr interpolationmode none
attr recordingmode vector(packetBytes)
attr source ieee80211Unicast(packetSentToPeer)
attr title "packets sent: unicast, packetBytes"
vector 196 WSN_Network.Sensor_Node[2].wlan[0].mac.dcf packetSentToPeerMulticast:vector(packetBytes) ETV
attr interpolationmode none
attr recordingmode vector(packetBytes)
attr source ieee80211Multicast(packetSentToPeer)
attr title "packets sent: multicast, packetBytes"
vector 197 WSN_Network.Sensor_Node[2].wlan[0].mac.dcf packetSentToPeerBroadcast:vector(packetBytes) ETV
attr interpolationmode none
attr recordingmode vector(packetBytes)
attr source ieee80211Broadcast(packetSentToPeer)
attr title "packets sent: broadcast , packetBytes"
vector 198 WSN_Network.Sensor_Node[2].wlan[0].mac.dcf packetSentToPeerWithRetry:vector(packetBytes) ETV
attr interpolationmode none
attr recordingmode vector(packetBytes)
attr source ieee80211Retry(packetSentToPeer)
attr title "packets sent: with retry, packetBytes"
vector 199 WSN_Network.Sensor_Node[2].wlan[0].mac.dcf packetSentToPeerWithoutRetry:vector(packetBytes) ETV
attr interpolationmode none
attr recordingmode vector(packetBytes)
attr source ieee80211NotRetry(packetSentToPeer)
attr title "packets sent: without retry, packetBytes"
vector 200 WSN_Network.Sensor_Node[2].wlan[0].mac.dcf packetReceivedFromPeer:vector(packetBytes) ETV
attr interpolationmode none
attr recordingmode vector(packetBytes)
attr title "packets received, packetBytes"
vector 201 WSN_Network.Sensor_Node[2].wlan[0].mac.dcf packetReceivedFromPeerUnicast:vector(packetBytes) ETV
attr interpolationmode none
attr recordingmode vector(packetBytes)
attr source ieee80211Unicast(packetReceivedFromPeer)
attr title "packets received: unicast, packetBytes"
vector 202 WSN_Network.Sensor_Node[2].wlan[0].mac.dcf packetReceivedFromPeerMulticast:vector(packetBytes) ETV
attr interpolationmode none
attr recordingmode vector(packetBytes)
attr source ieee80211Multicast(packetReceivedFromPeer)
attr title "packets received: multicast, packetBytes"
vector 203 WSN_Network.Sensor_Node[2].wlan[0].mac.dcf packetReceivedFromPeerBroadcast:vector(packetBytes) ETV
attr interpolationmode none
attr recordingmode vector(packetBytes)
attr source ieee80211Broadcast(packetReceivedFromPeer)
attr title "packets received: broadcast, packetBytes"
vector 204 WSN_Network.Sensor_Node[2].wlan[0].mac.dcf packetReceivedFromPeerWithRetry:vector(packetBytes) ETV
attr interpolationmode none
attr recordingmode vector(packetBytes)
attr source ieee80211Retry(packetReceivedFromPeer)
attr title "packets received: with retry, packetBytes"
vector 205 WSN_Network.Sensor_Node[2].wlan[0].mac.dcf packetReceivedFromPeerWithoutRetry:vector(packetBytes) ETV
attr interpolationmode none
attr recordingmode vector(packetBytes)
attr source ieee80211NotRetry(packetReceivedFromPeer)
attr title "packets received: without retry, packetBytes"
vector 206 WSN_Network.Sensor_Node[2].wlan[0].mac.dcf packetDrop:vector(packetBytes) ETV
attr interpolationmode none
attr recordingmode vector(packetBytes)
attr source packetDropped
attr title "packet drops, packetBytes"
vector 207 WSN_Network.Sensor_Node[2].wlan[0].mac.dcf packetDropNotAddressedToUs:vector(packetBytes) ETV
attr interpolationmode none
attr recordingmode vector(packetBytes)
attr source packetDropReasonIsNotAddressedToUs(packetDropped)
attr title "packet drops: not addressed to us, packetBytes"
vector 208 WSN_Network.Sensor_Node[2].wlan[0].mac.dcf packetDropQueueOverflow:vector(packetBytes) ETV
attr interpolationmode none
attr recordingmode vector(packetBytes)
attr source packetDropReasonIsQueueOverflow(packetDropped)
attr title "packet drops: queue overflow, packetBytes"
vector 209 WSN_Network.Sensor_Node[2].wlan[0].mac.dcf packetDropRetryLimitReached:vector(packetBytes) ETV
attr interpolationmode none
attr recordingmode vector(packetBytes)
attr source packetDropReasonIsRetryLimitReached(packetDropped)
attr title "packet drops: retry limit reached, packetBytes"
vector 210 WSN_Network.Sensor_Node[2].wlan[0].mac.dcf frameSequenceActive:vector ETV
attr autoWarmupFilter false
attr interpolationmode sample-hold
attr recordingmode vector
attr source warmup(count(frameSequenceStarted)-count(frameSequenceFinished))
attr title "frame sequence active"
vector 211 WSN_Network.Sensor_Node[2].wlan[0].mac.dcf datarateSelected:vector ETV
attr interpolationmode none
attr recordingmode vector
attr title "datarates selected"
vector 212 WSN_Network.Sensor_Node[2].wlan[0].mac.rx nav:vector ETV
attr interpolationmode linear
attr recordingmode vector
attr source navChanged
attr title "network allocation vector"
vector 213 WSN_Network.Sensor_Node[2].wlan[0].mac packetSentToUpper:vector(packetBytes) ETV
attr interpolationmode none
attr recordingmode vector(packetBytes)
attr title "packets sent to upper layer, packetBytes"
vector 214 WSN_Network.Sensor_Node[2].wlan[0].mac packetSentToLower:vector(packetBytes) ETV
attr interpolationmode none
attr recordingmode vector(packetBytes)
attr title "packets sent to lower layer, packetBytes"
vector 215 WSN_Network.Sensor_Node[2].wlan[0].mac packetReceivedFromUpper:vector(packetBytes) ETV
attr interpolationmode none
attr recordingmode vector(packetBytes)
attr title "packets received from upper layer, packetBytes"
vector 216 WSN_Network.Sensor_Node[2].wlan[0].mac packetReceivedFromLower:vector(packetBytes) ETV
attr interpolationmode none
attr recordingmode vector(packetBytes)
attr title "packets received from lower layer, packetBytes"
vector 217 WSN_Network.Sensor_Node[2].wlan[0].mac packetDrop:vector(packetBytes) ETV
attr interpolationmode none
attr recordingmode vector(packetBytes)
attr source packetDropped
attr title "packet drops, packetBytes"
vector 218 WSN_Network.Sensor_Node[2].wlan[0].mac packetDropIncorrectlyReceived:vector(packetBytes) ETV
attr interpolationmode none
attr recordingmode vector(packetBytes)
attr source packetDropReasonIsIncorrectlyReceived(packetDropped)
attr title "packet drops: incorrectly received, packetBytes"
vector 219 WSN_Network.Sensor_Node[2].wlan[0].mac packetDropNotAddressedToUs:vector(packetBytes) ETV
attr interpolationmode none
attr recordingmode vector(packetBytes)
attr source packetDropReasonIsNotAddressedToUs(packetDropped)
attr title "packet drops: not addressed to us, packetBytes"
vector 220 WSN_Network.Sensor_Node[2].wlan[0].mac packetDropQueueOverflow:vector(packetBytes) ETV
attr interpolationmode none
attr recordingmode vector(packetBytes)
attr source packetDropReasonIsQueueOverflow(packetDropped)
attr title "packet drops: queue overflow, packetBytes"
vector 221 WSN_Network.Sensor_Node[2].wlan[0].mac packetDropRetryLimitReached:vector(packetBytes) ETV
attr interpolationmode none
attr recordingmode vector(packetBytes)
attr source packetDropReasonIsRetryLimitReached(packetDropped)
attr title "packet drops: retry limit reached, packetBytes"
vector 222 WSN_Network.Sensor_Node[2].wlan[0].mac packetDropDuplicateDetected:vector(packetBytes) ETV
attr interpolationmode none
attr recordingmode vector(packetBytes)
attr source packetDropReasonIsDuplicateDetected(packetDropped)
attr title "packet drops: duplicate detected, packetBytes"
vector 223 WSN_Network.Sensor_Node[2].wlan[0].mac packetDropOther:vector(packetBytes) ETV
attr interpolationmode none
attr recordingmode vector(packetBytes)
attr source packetDropReasonIsOther(packetDropped)
attr title "packet drops: other, packetBytes"
vector 224 WSN_Network.Sensor_Node[2].wlan[0].radio radioMode:vector ETV
attr interpolationmode sample-hold
attr recordingmode vector
attr source radioModeChanged
attr title "Radio mode"
vector 225 WSN_Network.Sensor_Node[2].wlan[0].radio receptionState:vector ETV
attr interpolationmode sample-hold
attr recordingmode vector
attr source receptionStateChanged
attr title "Radio reception state"
vector 226 WSN_Network.Sensor_Node[2].wlan[0].radio transmissionState:vector ETV
attr interpolationmode sample-hold
attr recordingmode vector
attr source transmissionStateChanged
attr title "Radio transmission state"
vector 227 WSN_Network.Sensor_Node[2].wlan[0].radio radioChannel:vector ETV
attr interpolationmode sample-hold
attr recordingmode vector
attr source radioChannelChanged
attr title "Radio channel"
vector 228 WSN_Network.Sensor_Node[2].wlan[0] packetDropInterfaceDown:vector(packetBytes) ETV
attr interpolationmode none
attr recordingmode vector(packetBytes)
attr source packetDropReasonIsInterfaceDown(packetDropped)
attr title "packet drops: interface down, packetBytes"
vector 229 WSN_Network.Sensor_Node[2].wlan[0] packetDropNoCarrier:vector(packetBytes) ETV
attr interpolationmode none
attr recordingmode vector(packetBytes)
attr source packetDropReasonIsNoCarrier(packetDropped)
attr title "packet drops: no carrier, packetBytes"
vector 230 WSN_Network.Sensor_Node[2].ipv4.ip packetDropAddressResolutionFailed:vector(packetBytes) ETV
attr interpolationmode none
attr recordingmode vector(packetBytes)
attr source packetDropReasonIsAddressResolutionFailed(packetDropped)
attr title "packet drop: address resolution failed, packetBytes"
vector 231 WSN_Network.Sensor_Node[2].ipv4.ip packetDropHopLimitReached:vector(packetBytes) ETV
attr interpolationmode none
attr recordingmode vector(packetBytes)
attr source packetDropReasonIsHopLimitReached(packetDropped)
attr title "packet drop: hop limit reached, packetBytes"
vector 232 WSN_Network.Sensor_Node[2].ipv4.ip packetDropForwardingDisabled:vector(packetBytes) ETV
attr interpolationmode none
attr recordingmode vector(packetBytes)
attr source packetDropReasonIsForwardingDisabled(packetDropped)
attr title "packet drop: forwarding disabled, packetBytes"
vector 233 WSN_Network.Sensor_Node[2].ipv4.ip packetDropNoInterfaceFound:vector(packetBytes) ETV
attr interpolationmode none
attr recordingmode vector(packetBytes)
attr source packetDropReasonIsNoInterfaceFound(packetDropped)
attr title "packet drop: no interface found, packetBytes"
vector 234 WSN_Network.Sensor_Node[2].ipv4.ip packetDropNoRouteFound:vector(packetBytes) ETV
attr interpolationmode none
attr recordingmode vector(packetBytes)
attr source packetDropReasonIsNoRouteFound(packetDropped)
attr title "packet drop: no route found, packetBytes"
vector 235 WSN_Network.Sensor_Node[2].ipv4.ip packetDropUndefined:vector(packetBytes) ETV
attr interpolationmode none
attr recordingmode vector(packetBytes)
attr source packetDropReasonIsUndefined(packetDropped)
attr title "packet drop: undefined, packetBytes"
vector 236 WSN_Network.Sensor_Node[2].ipv4.arp arpRequestSent:vector(packetBytes) ETV
attr recordingmode vector(packetBytes)
attr source arpRequestSent
attr title "ARP request sent, packetBytes"
vector 237 WSN_Network.Sensor_Node[2].ipv4.arp arpReplySent:vector(packetBytes) ETV
attr recordingmode vector(packetBytes)
attr source arpReplySent
attr title "ARP replies sent, packetBytes"
vector 238 WSN_Network.Sensor_Node[2].udp packetSent:vector(packetBytes) ETV
attr interpolationmode none
attr recordingmode vector(packetBytes)
attr source packetSent
attr title "packets sent, packetBytes"
vector 239 WSN_Network.Sensor_Node[2].udp packetReceived:vector(packetBytes) ETV
attr interpolationmode none
attr recordingmode vector(packetBytes)
attr source packetReceived
attr title "packets received, packetBytes"
vector 240 WSN_Network.Sensor_Node[2].udp passedUpPk:vector(count) ETV
attr interpolationmode none
attr recordingmode vector(count)
attr source packetSentToUpper
attr title "packets passed up, count"
vector 241 WSN_Network.Sensor_Node[2].udp droppedPkWrongPort:vector(count) ETV
attr interpolationmode none
attr recordingmode vector(count)
attr source packetDropReasonIsNoPortFound(packetDropped)
attr title "packets dropped (wrong port), count"
vector 242 WSN_Network.Sensor_Node[2].udp droppedPkBadChecksum:vector(count) ETV
attr interpolationmode none
attr recordingmode vector(count)
attr source packetDropReasonIsIncorrectlyReceived(packetDropped)
attr title "packets dropped (checksum error), count"
vector 243 WSN_Network.Sensor_Node[2].app[0] rtt:vector ETV
attr interpolationmode none
attr recordingmode vector
attr title "ping round-trip time"
attr unit s
vector 244 WSN_Network.Sensor_Node[2].app[0] numLost:vector ETV
attr interpolationmode none
attr recordingmode vector
attr title "pings lost"
vector 245 WSN_Network.Sensor_Node[2].app[0] numOutOfOrderArrivals:vector ETV
attr interpolationmode none
attr recordingmode vector
attr title "ping out-of-order arrivals"
vector 246 WSN_Network.Sensor_Node[2].app[0] pingTxSeq:vector ETV
attr interpolationmode none
attr recordingmode vector
attr title "ping tx seq"
vector 247 WSN_Network.Sensor_Node[2].app[0] pingRxSeq:vector ETV
attr interpolationmode none
attr recordingmode vector
attr title "ping rx seq"
vector 248 WSN_Network.Sensor_Node[2].app[1] rtt:vector ETV
attr interpolationmode none
attr recordingmode vector
attr title "ping round-trip time"
attr unit s
vector 249 WSN_Network.Sensor_Node[2].app[1] numLost:vector ETV
attr interpolationmode none
attr recordingmode vector
attr title "pings lost"
vector 250 WSN_Network.Sensor_Node[2].app[1] numOutOfOrderArrivals:vector ETV
attr interpolationmode none
attr recordingmode vector
attr title "ping out-of-order arrivals"
vector 251 WSN_Network.Sensor_Node[2].app[1] pingTxSeq:vector ETV
attr interpolationmode none
attr recordingmode vector
attr title "ping tx seq"
vector 252 WSN_Network.Sensor_Node[2].app[1] pingRxSeq:vector ETV
attr interpolationmode none
attr recordingmode vector
attr title "ping rx seq"
vector 253 WSN_Network.Sensor_Node[3].lo[0].lo rcvdPkFromHl:vector(packetBytes) ETV
attr interpolationmode none
attr recordingmode vector(packetBytes)
attr source packetReceivedFromUpper
attr title "packets received from higher layer, packetBytes"
vector 254 WSN_Network.Sensor_Node[3].lo[0].lo passedUpPk:vector(packetBytes) ETV
attr interpolationmode none
attr recordingmode vector(packetBytes)
attr source packetSentToUpper
attr title "packets passed to higher layer, packetBytes"
vector 255 WSN_Network.Sensor_Node[3].lo[0] packetDropInterfaceDown:vector(packetBytes) ETV
attr interpolationmode none
attr recordingmode vector(packetBytes)
attr source packetDropReasonIsInterfaceDown(packetDropped)
attr title "packet drops: interface down, packetBytes"
vector 256 WSN_Network.Sensor_Node[3].lo[0] packetDropNoCarrier:vector(packetBytes) ETV
attr interpolationmode none
attr recordingmode vector(packetBytes)
attr source packetDropReasonIsNoCarrier(packetDropped)
attr title "packet drops: no carrier, packetBytes"
vector 257 WSN_Network.Sensor_Node[3].wlan[0].mac.dcf.channelAccess.pendingQueue queueLength:vector ETV
attr autoWarmupFilter false
attr interpolationmode sample-hold
attr recordingmode vector
attr source "warmup(atomic(constant0(packetPushEnded) + count(packetPushStarted) - count(packetPulled) - count(packetRemoved) - count(packetDropped)))"
attr title "queue length"
attr unit pk
vector 258 WSN_Network.Sensor_Node[3].wlan[0].mac.dcf.channelAccess.pendingQueue queueBitLength:vector ETV
attr autoWarmupFilter false
attr interpolationmode sample-hold
attr recordingmode vector
attr source "warmup(atomic(constant0(packetPushEnded) + sum(packetLength(packetPushStarted)) - sum(packetLength(packetPulled)) - sum(packetLength(packetRemoved)) - sum(packetLength(packetDropped))))"
attr title "queue bit length"
attr unit b
vector 259 WSN_Network.Sensor_Node[3].wlan[0].mac.dcf.channelAccess.pendingQueue queueingTime:vector ETV
attr interpolationmode none
attr recordingmode vector
attr source queueingTime(packetPulled)
attr title "queueing times"
attr unit s
vector 260 WSN_Network.Sensor_Node[3].wlan[0].mac.dcf.channelAccess.pendingQueue incomingPacketLengths:vector ETV
attr interpolationmode none
attr recordingmode vector
attr source packetLength(packetPushStarted)
attr title "incoming packet lengths"
attr unit b
vector 261 WSN_Network.Sensor_Node[3].wlan[0].mac.dcf.channelAccess.pendingQueue incomingDataRate:vector ETV
attr interpolationmode linear
attr recordingmode vector
attr source throughput(packetPushStarted)
attr title "incoming datarate"
attr unit bps
vector 262 WSN_Network.Sensor_Node[3].wlan[0].mac.dcf.channelAccess.pendingQueue outgoingPacketLengths:vector ETV
attr interpolationmode none
attr recordingmode vector
attr source packetLength(packetPulled)
attr title "outgoing packet lengths"
attr unit b
vector 263 WSN_Network.Sensor_Node[3].wlan[0].mac.dcf.channelAccess.pendingQueue outgoingDataRate:vector ETV
attr interpolationmode linear
attr recordingmode vector
attr source throughput(packetPulled)
attr title "outgoing datarate"
attr unit bps
vector 264 WSN_Network.Sensor_Node[3].wlan[0].mac.dcf.channelAccess.pendingQueue droppedPacketLengthsQueueOverflow:vector ETV
attr interpolationmode none
attr recordingmode vector
attr source packetLength(packetDropReasonIsQueueOverflow(packetDropped))
attr title "dropped packet lengths: queue overflow"
attr unit b
vector 265 WSN_Network.Sensor_Node[3].wlan[0].mac.dcf.channelAccess.pendingQueue flowQueueingTime:vector ETV
attr interpolationmode none
attr recordingmode vector
attr source queueingTime(demuxFlow(packetPulled))
attr title "flow queueing times"
attr unit s
vector 266 WSN_Network.Sensor_Node[3].wlan[0].mac.dcf.channelAccess.pendingQueue flowIncomingDataRate:vector ETV
attr interpolationmode linear
attr recordingmode vector
attr source throughput(flowPacketLength(demuxFlow(packetPushStarted)))
attr title "flow specific incoming data rate"
attr unit bps
vector 267 WSN_Network.Sensor_Node[3].wlan[0].mac.dcf.channelAccess.pendingQueue flowOutgoingDataRate:vector ETV
attr interpolationmode linear
attr recordingmode vector
attr source throughput(flowPacketLength(demuxFlow(packetPulled)))
attr title "flow specific outgoing data rate"
attr unit bps
vector 268 WSN_Network.Sensor_Node[3].wlan[0].mac.dcf.channelAccess.inProgressFrames queueingTime:vector ETV
attr interpolationmode none
attr recordingmode vector
attr source queueingTime(packetDequeued)
attr title "queueing times"
vector 269 WSN_Network.Sensor_Node[3].wlan[0].mac.dcf.channelAccess.inProgressFrames queueLength:vector ETV
attr autoWarmupFilter false
attr interpolationmode sample-hold
attr recordingmode vector
attr source "warmup(count(packetEnqueued) - count(packetDequeued))"
attr title "queue length"
vector 270 WSN_Network.Sensor_Node[3].wlan[0].mac.dcf.channelAccess.contention backoffPeriodGenerated:vector ETV
attr interpolationmode none
attr recordingmode vector
attr title "backoff periods"
vector 271 WSN_Network.Sensor_Node[3].wlan[0].mac.dcf.channelAccess.contention backoffActive:vector ETV
attr autoWarmupFilter false
attr interpolationmode sample-hold
attr recordingmode vector
attr source warmup(count(backoffStarted)-count(backoffStopped))
attr title "backoff active"
vector 272 WSN_Network.Sensor_Node[3].wlan[0].mac.dcf.channelAccess.contention stateChanged:vector ETV
attr enum IDLE,DEFER,IFS_AND_BACKOFF
attr interpolationmode none
attr recordingmode vector
attr title "contention state changed"
attr type enum
vector 273 WSN_Network.Sensor_Node[3].wlan[0].mac.dcf.recipientMacDataService packetDropDuplicateDetected:vector(packetBytes) ETV
attr interpolationmode none
attr recordingmode vector(packetBytes)
attr source packetDropReasonIsDuplicateDetected(packetDropped)
attr title "packet drops: duplicate detected, packetBytes"
vector 274 WSN_Network.Sensor_Node[3].wlan[0].mac.dcf.recoveryProcedure contentionWindowChanged:vector ETV
attr interpolationmode sample-hold
attr recordingmode vector
attr title "contention window"
vector 275 WSN_Network.Sensor_Node[3].wlan[0].mac.dcf packetSentToPeer:vector(packetBytes) ETV
attr interpolationmode none
attr recordingmode vector(packetBytes)
attr title "packets sent, packetBytes"
vector 276 WSN_Network.Sensor_Node[3].wlan[0].mac.dcf packetSentToPeerUnicast:vector(packetBytes) ETV
attr interpolationmode none
attr recordingmode vector(packetBytes)
attr source ieee80211Unicast(packetSentToPeer)
attr title "packets sent: unicast, packetBytes"
vector 277 WSN_Network.Sensor_Node[3].wlan[0].mac.dcf packetSentToPeerMulticast:vector(packetBytes) ETV
attr interpolationmode none
attr recordingmode vector(packetBytes)
attr source ieee80211Multicast(packetSentToPeer)
attr title "packets sent: multicast, packetBytes"
vector 278 WSN_Network.Sensor_Node[3].wlan[0].mac.dcf packetSentToPeerBroadcast:vector(packetBytes) ETV
attr interpolationmode none
attr recordingmode vector(packetBytes)
attr source ieee80211Broadcast(packetSentToPeer)
attr title "packets sent: broadcast , packetBytes"
vector 279 WSN_Network.Sensor_Node[3].wlan[0].mac.dcf packetSentToPeerWithRetry:vector(packetBytes) ETV
attr interpolationmode none
attr recordingmode vector(packetBytes)
attr source ieee80211Retry(packetSentToPeer)
attr title "packets sent: with retry, packetBytes"
vector 280 WSN_Network.Sensor_Node[3].wlan[0].mac.dcf packetSentToPeerWithoutRetry:vector(packetBytes) ETV
attr interpolationmode none
attr recordingmode vector(packetBytes)
attr source ieee80211NotRetry(packetSentToPeer)
attr title "packets sent: without retry, packetBytes"
vector 281 WSN_Network.Sensor_Node[3].wlan[0].mac.dcf packetReceivedFromPeer:vector(packetBytes) ETV
attr interpolationmode none
attr recordingmode vector(packetBytes)
attr title "packets received, packetBytes"
vector 282 WSN_Network.Sensor_Node[3].wlan[0].mac.dcf packetReceivedFromPeerUnicast:vector(packetBytes) ETV
attr interpolationmode none
attr recordingmode vector(packetBytes)
attr source ieee80211Unicast(packetReceivedFromPeer)
attr title "packets received: unicast, packetBytes"
vector 283 WSN_Network.Sensor_Node[3].wlan[0].mac.dcf packetReceivedFromPeerMulticast:vector(packetBytes) ETV
attr interpolationmode none
attr recordingmode vector(packetBytes)
attr source ieee80211Multicast(packetReceivedFromPeer)
attr title "packets received: multicast, packetBytes"
vector 284 WSN_Network.Sensor_Node[3].wlan[0].mac.dcf packetReceivedFromPeerBroadcast:vector(packetBytes) ETV
attr interpolationmode none
attr recordingmode vector(packetBytes)
attr source ieee80211Broadcast(packetReceivedFromPeer)
attr title "packets received: broadcast, packetBytes"
vector 285 WSN_Network.Sensor_Node[3].wlan[0].mac.dcf packetReceivedFromPeerWithRetry:vector(packetBytes) ETV
attr interpolationmode none
attr recordingmode vector(packetBytes)
attr source ieee80211Retry(packetReceivedFromPeer)
attr title "packets received: with retry, packetBytes"
vector 286 WSN_Network.Sensor_Node[3].wlan[0].mac.dcf packetReceivedFromPeerWithoutRetry:vector(packetBytes) ETV
attr interpolationmode none
attr recordingmode vector(packetBytes)
attr source ieee80211NotRetry(packetReceivedFromPeer)
attr title "packets received: without retry, packetBytes"
vector 287 WSN_Network.Sensor_Node[3].wlan[0].mac.dcf packetDrop:vector(packetBytes) ETV
attr interpolationmode none
attr recordingmode vector(packetBytes)
attr source packetDropped
attr title "packet drops, packetBytes"
vector 288 WSN_Network.Sensor_Node[3].wlan[0].mac.dcf packetDropNotAddressedToUs:vector(packetBytes) ETV
attr interpolationmode none
attr recordingmode vector(packetBytes)
attr source packetDropReasonIsNotAddressedToUs(packetDropped)
attr title "packet drops: not addressed to us, packetBytes"
vector 289 WSN_Network.Sensor_Node[3].wlan[0].mac.dcf packetDropQueueOverflow:vector(packetBytes) ETV
attr interpolationmode none
attr recordingmode vector(packetBytes)
attr source packetDropReasonIsQueueOverflow(packetDropped)
attr title "packet drops: queue overflow, packetBytes"
vector 290 WSN_Network.Sensor_Node[3].wlan[0].mac.dcf packetDropRetryLimitReached:vector(packetBytes) ETV
attr interpolationmode none
attr recordingmode vector(packetBytes)
attr source packetDropReasonIsRetryLimitReached(packetDropped)
attr title "packet drops: retry limit reached, packetBytes"
vector 291 WSN_Network.Sensor_Node[3].wlan[0].mac.dcf frameSequenceActive:vector ETV
attr autoWarmupFilter false
attr interpolationmode sample-hold
attr recordingmode vector
attr source warmup(count(frameSequenceStarted)-count(frameSequenceFinished))
attr title "frame sequence active"
vector 292 WSN_Network.Sensor_Node[3].wlan[0].mac.dcf datarateSelected:vector ETV
attr interpolationmode none
attr recordingmode vector
attr title "datarates selected"
vector 293 WSN_Network.Sensor_Node[3].wlan[0].mac.rx nav:vector ETV
attr interpolationmode linear
attr recordingmode vector
attr source navChanged
attr title "network allocation vector"
vector 294 WSN_Network.Sensor_Node[3].wlan[0].mac packetSentToUpper:vector(packetBytes) ETV
attr interpolationmode none
attr recordingmode vector(packetBytes)
attr title "packets sent to upper layer, packetBytes"
vector 295 WSN_Network.Sensor_Node[3].wlan[0].mac packetSentToLower:vector(packetBytes) ETV
attr interpolationmode none
attr recordingmode vector(packetBytes)
attr title "packets sent to lower layer, packetBytes"
vector 296 WSN_Network.Sensor_Node[3].wlan[0].mac packetReceivedFromUpper:vector(packetBytes) ETV
attr interpolationmode none
attr recordingmode vector(packetBytes)
attr title "packets received from upper layer, packetBytes"
vector 297 WSN_Network.Sensor_Node[3].wlan[0].mac packetReceivedFromLower:vector(packetBytes) ETV
attr interpolationmode none
attr recordingmode vector(packetBytes)
attr title "packets received from lower layer, packetBytes"
vector 298 WSN_Network.Sensor_Node[3].wlan[0].mac packetDrop:vector(packetBytes) ETV
attr interpolationmode none
attr recordingmode vector(packetBytes)
attr source packetDropped
attr title "packet drops, packetBytes"
vector 299 WSN_Network.Sensor_Node[3].wlan[0].mac packetDropIncorrectlyReceived:vector(packetBytes) ETV
attr interpolationmode none
attr recordingmode vector(packetBytes)
attr source packetDropReasonIsIncorrectlyReceived(packetDropped)
attr title "packet drops: incorrectly received, packetBytes"
vector 300 WSN_Network.Sensor_Node[3].wlan[0].mac packetDropNotAddressedToUs:vector(packetBytes) ETV
attr interpolationmode none
attr recordingmode vector(packetBytes)
attr source packetDropReasonIsNotAddressedToUs(packetDropped)
attr title "packet drops: not addressed to us, packetBytes"
vector 301 WSN_Network.Sensor_Node[3].wlan[0].mac packetDropQueueOverflow:vector(packetBytes) ETV
attr interpolationmode none
attr recordingmode vector(packetBytes)
attr source packetDropReasonIsQueueOverflow(packetDropped)
attr title "packet drops: queue overflow, packetBytes"
vector 302 WSN_Network.Sensor_Node[3].wlan[0].mac packetDropRetryLimitReached:vector(packetBytes) ETV
attr interpolationmode none
attr recordingmode vector(packetBytes)
attr source packetDropReasonIsRetryLimitReached(packetDropped)
attr title "packet drops: retry limit reached, packetBytes"
[...]
517	1025742 12 0 0 0 0 1 31 31 31 961
534	1025754 22 0 0 0 0 2 0 0 0 0
548	1025776 33 0 0 0 0 3 0 2 2 4
549	1025809 11 0 0 0 0 1 1 1 1 1
551	1025820 11 0 0 0 0 1 0 0 0 0
564	1025831 11 0 0 0 0 1 0 0 0 0
565	1025842 11 0 0 0 0 1 0 0 0 0
566	1025853 11 0 0 0 0 1 0 0 0 0
581	1025864 55 0 0 0 0 5 0 0 0 0
582	1025919 55 0 0 0 0 5 0 0 0 0
593	1025974 22 0 0 0 0 2 0 0 0 0
595	1025996 22 0 0 0 0 2 0 0 0 0
596	1026018 22 0 0 0 0 2 0 0 0 0
598	1026040 12 0 0 0 0 1 31 31 31 961
615	1026052 22 0 0 0 0 2 0 0 0 0
629	1026074 33 0 0 0 0 3 0 2 2 4
630	1026107 11 0 0 0 0 1 1 1 1 1
632	1026118 11 0 0 0 0 1 0 0 0 0
645	1026129 11 0 0 0 0 1 0 0 0 0
646	1026140 11 0 0 0 0 1 0 0 0 0
647	1026151 11 0 0 0 0 1 0 0 0 0
662	1026162 55 0 0 0 0 5 0 0 0 0
663	1026217 55 0 0 0 0 5 0 0 0 0
674	1026272 22 0 0 0 0 2 0 0 0 0
676	1026294 22 0 0 0 0 2 0 0 0 0
677	1026316 22 0 0 0 0 2 0 0 0 0
679	1026338 12 0 0 0 0 1 31 31 31 961
696	1026350 22 0 0 0 0 2 0 0 0 0
710	1026372 33 0 0 0 0 3 0 2 2 4
711	1026405 11 0 0 0 0 1 1 1 1 1
713	1026416 11 0 0 0 0 1 0 0 0 0
726	1026427 11 0 0 0 0 1 0 0 0 0
727	1026438 11 0 0 0 0 1 0 0 0 0
728	1026449 11 0 0 0 0 1 0 0 0 0
743	1026460 55 0 0 0 0 5 0 0 0 0
744	1026515 55 0 0 0 0 5 0 0 0 0
755	1026570 22 0 0 0 0 2 0 0 0 0
757	1026592 22 0 0 0 0 2 0 0 0 0
758	1026614 22 0 0 0 0 2 0 0 0 0
760	1026636 12 0 0 0 0 1 31 31 31 961
777	1026648 22 0 0 0 0 2 0 0 0 0
791	1026670 33 0 0 0 0 3 0 2 2 4
792	1026703 11 0 0 0 0 1 1 1 1 1
794	1026714 11 0 0 0 0 1 0 0 0 0
807	1026725 11 0 0 0 0 1 0 0 0 0
808	1026736 11 0 0 0 0 1 0 0 0 0
809	1026747 11 0 0 0 0 1 0 0 0 0
824	1026758 55 0 0 0 0 5 0 0 0 0
825	1026813 55 0 0 0 0 5 0 0 0 0
836	1026868 22 0 0 0 0 2 0 0 0 0
838	1026890 22 0 0 0 0 2 0 0 0 0
839	1026912 22 0 0 0 0 2 0 0 0 0
841	1026934 12 0 0 0 0 1 31 31 31 961
858	1026946 22 0 0 0 0 2 0 0 0 0
872	1026968 33 0 0 0 0 3 0 2 2 4
873	1027001 11 0 0 0 0 1 1 1 1 1
875	1027012 11 0 0 0 0 1 0 0 0 0
888	1027023 11 0 0 0 0 1 0 0 0 0
889	1027034 11 0 0 0 0 1 0 0 0 0
890	1027045 11 0 0 0 0 1 0 0 0 0
905	1027056 55 0 0 0 0 5 0 0 0 0
906	1027111 55 0 0 0 0 5 0 0 0 0
917	1027166 22 0 0 0 0 2 0 0 0 0
919	1027188 22 0 0 0 0 2 0 0 0 0
920	1027210 22 0 0 0 0 2 0 0 0 0
922	1027232 12 0 0 0 0 1 31 31 31 961
939	1027244 22 0 0 0 0 2 0 0 0 0
953	1027266 33 0 0 0 0 3 0 2 2 4
954	1027299 11 0 0 0 0 1 1 1 1 1
956	1027310 11 0 0 0 0 1 0 0 0 0
969	1027321 11 0 0 0 0 1 0 0 0 0
970	1027332 11 0 0 0 0 1 0 0 0 0
971	1027343 11 0 0 0 0 1 0 0 0 0
986	1027354 55 0 0 0 0 5 0 0 0 0
987	1027409 55 0 0 0 0 5 0 0 0 0
998	1027464 22 0 0 0 0 2 0 0 0 0
1000	1027486 24 0 0 0 0 2 0 0 0 0
1001	1027510 24 0 0 0 0 2 0 0 0 0
1003	1027534 13 0 0 0 0 1 31 31 31 961
1020	1027547 24 0 0 0 0 2 0 0 0 0
1034	1027571 36 0 0 0 0 3 0 2 2 4
1035	1027607 12 0 0 0 0 1 1 1 1 1
1037	1027619 12 0 0 0 0 1 0 0 0 0
1050	1027631 12 0 0 0 0 1 0 0 0 0
1051	1027643 12 0 0 0 0 1 0 0 0 0
1052	1027655 12 0 0 0 0 1 0 0 0 0
1067	1027667 60 0 0 0 0 5 0 0 0 0
1068	1027727 60 0 0 0 0 5 0 0 0 0
1079	1027787 24 0 0 0 0 2 0 0 0 0
1081	1027811 24 0 0 0 0 2 0 0 0 0
1082	1027835 24 0 0 0 0 2 0 0 0 0
1084	1027859 13 0 0 0 0 1 31 31 31 961
1101	1027872 24 0 0 0 0 2 0 0 0 0
1115	1027896 36 0 0 0 0 3 0 2 2 4
1116	1027932 12 0 0 0 0 1 1 1 1 1
1118	1027944 12 0 0 0 0 1 0 0 0 0
1131	1027956 12 0 0 0 0 1 0 0 0 0
1132	1027968 12 0 0 0 0 1 0 0 0 0
1133	1027980 12 0 0 0 0 1 0 0 0 0
1148	1027992 60 0 0 0 0 5 0 0 0 0
1149	1028052 60 0 0 0 0 5 0 0 0 0
1160	1028112 24 0 0 0 0 2 0 0 0 0
1162	1028136 24 0 0 0 0 2 0 0 0 0
1163	1028160 24 0 0 0 0 2 0 0 0 0
1165	1028184 13 0 0 0 0 1 31 31 31 961
1182	1028197 24 0 0 0 0 2 0 0 0 0
1196	1028221 36 0 0 0 0 3 0 2 2 4
1197	1028257 12 0 0 0 0 1 1 1 1 1
1199	1028269 12 0 0 0 0 1 0 0 0 0
1212	1028281 12 0 0 0 0 1 0 0 0 0
1213	1028293 12 0 0 0 0 1 0 0 0 0
1214	1028305 12 0 0 0 0 1 0 0 0 0
1229	1028317 60 0 0 0 0 5 0 0 0 0
1230	1028377 60 0 0 0 0 5 0 0 0 0
1241	1028437 24 0 0 0 0 2 0 0 0 0
1243	1028461 24 0 0 0 0 2 0 0 0 0
1244	1028485 24 0 0 0 0 2 0 0 0 0
1246	1028509 13 0 0 0 0 1 31 31 31 961
1263	1028522 24 0 0 0 0 2 0 0 0 0
1277	1028546 36 0 0 0 0 3 0 2 2 4
1278	1028582 12 0 0 0 0 1 1 1 1 1
1280	1028594 12 0 0 0 0 1 0 0 0 0
1293	1028606 12 0 0 0 0 1 0 0 0 0
1294	1028618 12 0 0 0 0 1 0 0 0 0
1295	1028630 12 0 0 0 0 1 0 0 0 0
1310	1028642 60 0 0 0 0 5 0 0 0 0
1311	1028702 60 0 0 0 0 5 0 0 0 0
1322	1028762 24 0 0 0 0 2 0 0 0 0
1324	1028786 24 0 0 0 0 2 0 0 0 0
1325	1028810 24 0 0 0 0 2 0 0 0 0
1327	1028834 13 0 0 0 0 1 31 31 31 961
1344	1028847 24 0 0 0 0 2 0 0 0 0
1358	1028871 36 0 0 0 0 3 0 2 2 4
1359	1028907 12 0 0 0 0 1 1 1 1 1
1361	1028919 12 0 0 0 0 1 0 0 0 0
1374	1028931 12 0 0 0 0 1 0 0 0 0
1375	1028943 12 0 0 0 0 1 0 0 0 0
1376	1028955 12 0 0 0 0 1 0 0 0 0
1391	1028967 60 0 0 0 0 5 0 0 0 0
1392	1029027 60 0 0 0 0 5 0 0 0 0
1403	1029087 24 0 0 0 0 2 0 0 0 0
1405	1029111 24 0 0 0 0 2 0 0 0 0
1406	1029135 24 0 0 0 0 2 0 0 0 0
1408	1029159 13 0 0 0 0 1 31 31 31 961
1425	1029172 24 0 0 0 0 2 0 0 0 0
1439	1029196 36 0 0 0 0 3 0 2 2 4
1440	1029232 12 0 0 0 0 1 1 1 1 1
1442	1029244 12 0 0 0 0 1 0 0 0 0
1455	1029256 12 0 0 0 0 1 0 0 0 0
1456	1029268 12 0 0 0 0 1 0 0 0 0
1457	1029280 12 0 0 0 0 1 0 0 0 0
1472	1029292 60 0 0 0 0 5 0 0 0 0
1473	1029352 60 0 0 0 0 5 0 0 0 0
1484	1029412 24 0 0 0 0 2 0 0 0 0
1486	1029436 24 0 0 0 0 2 0 0 0 0
1487	1029460 24 0 0 0 0 2 0 0 0 0
1489	1029484 13 0 0 0 0 1 31 31 31 961
1506	1029497 24 0 0 0 0 2 0 0 0 0
1520	1029521 36 0 0 0 0 3 0 2 2 4
1521	1029557 12 0 0 0 0 1 1 1 1 1
1523	1029569 12 0 0 0 0 1 0 0 0 0
1536	1029581 12 0 0 0 0 1 0 0 0 0
1537	1029593 12 0 0 0 0 1 0 0 0 0
1538	1029605 12 0 0 0 0 1 0 0 0 0
1553	1029617 60 0 0 0 0 5 0 0 0 0
1554	1029677 60 0 0 0 0 5 0 0 0 0
1565	1029737 24 0 0 0 0 2 0 0 0 0
1567	1029761 24 0 0 0 0 2 0 0 0 0
1568	1029785 24 0 0 0 0 2 0 0 0 0
1570	1029809 13 0 0 0 0 1 31 31 31 961
1587	1029822 24 0 0 0 0 2 0 0 0 0
1601	1029846 36 0 0 0 0 3 0 2 2 4
1602	1029882 12 0 0 0 0 1 1 1 1 1
1604	1029894 12 0 0 0 0 1 0 0 0 0
1617	1029906 12 0 0 0 0 1 0 0 0 0
1618	1029918 12 0 0 0 0 1 0 0 0 0
1619	1029930 12 0 0 0 0 1 0 0 0 0
1634	1029942 60 0 0 0 0 5 0 0 0 0
1635	1030002 60 0 0 0 0 5 0 0 0 0
1646	1030062 24 0 0 0 0 2 0 0 0 0
1648	1030086 24 0 0 0 0 2 0 0 0 0
1649	1030110 24 0 0 0 0 2 0 0 0 0
1651	1030134 13 0 0 0 0 1 31 31 31 961
1668	1030147 24 0 0 0 0 2 0 0 0 0
1682	1030171 36 0 0 0 0 3 0 2 2 4
1683	1030207 12 0 0 0 0 1 1 1 1 1
1685	1030219 12 0 0 0 0 1 0 0 0 0
1698	1030231 12 0 0 0 0 1 0 0 0 0
1699	1030243 12 0 0 0 0 1 0 0 0 0
1700	1030255 12 0 0 0 0 1 0 0 0 0
1715	1030267 60 0 0 0 0 5 0 0 0 0
1716	1030327 60 0 0 0 0 5 0 0 0 0
1727	1030387 24 0 0 0 0 2 0 0 0 0
1729	1030411 24 0 0 0 0 2 0 0 0 0
1730	1030435 24 0 0 0 0 2 0 0 0 0
1732	1030459 13 0 0 0 0 1 31 31 31 961
1749	1030472 24 0 0 0 0 2 0 0 0 0
1763	1030496 36 0 0 0 0 3 0 2 2 4
1764	1030532 12 0 0 0 0 1 1 1 1 1
1766	1030544 12 0 0 0 0 1 0 0 0 0
1779	1030556 12 0 0 0 0 1 0 0 0 0
1780	1030568 12 0 0 0 0 1 0 0 0 0
1781	1030580 12 0 0 0 0 1 0 0 0 0
1796	1030592 60 0 0 0 0 5 0 0 0 0
1797	1030652 60 0 0 0 0 5 0 0 0 0
1808	1030712 24 0 0 0 0 2 0 0 0 0
1810	1030736 24 0 0 0 0 2 0 0 0 0
1811	1030760 24 0 0 0 0 2 0 0 0 0
1813	1030784 13 0 0 0 0 1 31 31 31 961
1830	1030797 24 0 0 0 0 2 0 0 0 0
1844	1030821 36 0 0 0 0 3 0 2 2 4
1845	1030857 12 0 0 0 0 1 1 1 1 1
1847	1030869 12 0 0 0 0 1 0 0 0 0
1860	1030881 12 0 0 0 0 1 0 0 0 0
1861	1030893 12 0 0 0 0 1 0 0 0 0
1862	1030905 12 0 0 0 0 1 0 0 0 0
1877	1030917 60 0 0 0 0 5 0 0 0 0
1878	1030977 60 0 0 0 0 5 0 0 0 0
1889	1031037 24 0 0 0 0 2 0 0 0 0
1891	1031061 24 0 0 0 0 2 0 0 0 0
1892	1031085 24 0 0 0 0 2 0 0 0 0
1894	1031109 13 0 0 0 0 1 31 31 31 961
1911	1031122 24 0 0 0 0 2 0 0 0 0
1925	1031146 36 0 0 0 0 3 0 2 2 4
1926	1031182 12 0 0 0 0 1 1 1 1 1
1928	1031194 12 0 0 0 0 1 0 0 0 0
1941	1031206 12 0 0 0 0 1 0 0 0 0
1942	1031218 12 0 0 0 0 1 0 0 0 0
1943	1031230 12 0 0 0 0 1 0 0 0 0
1958	1031242 60 0 0 0 0 5 0 0 0 0
1959	1031302 60 0 0 0 0 5 0 0 0 0
1970	1031362 24 0 0 0 0 2 0 0 0 0
1972	1031386 24 0 0 0 0 2 0 0 0 0
1973	1031410 24 0 0 0 0 2 0 0 0 0
1975	1031434 13 0 0 0 0 1 31 31 31 961
1992	1031447 24 0 0 0 0 2 0 0 0 0
2006	1031471 36 0 0 0 0 3 0 2 2 4
2007	1031507 12 0 0 0 0 1 1 1 1 1
2009	1031519 12 0 0 0 0 1 0 0 0 0
2022	1031531 12 0 0 0 0 1 0 0 0 0
2023	1031543 12 0 0 0 0 1 0 0 0 0
2024	1031555 12 0 0 0 0 1 0 0 0 0
2039	1031567 60 0 0 0 0 5 0 0 0 0
2040	1031627 60 0 0 0 0 5 0 0 0 0
2051	1031687 24 0 0 0 0 2 0 0 0 0
2053	1031711 24 0 0 0 0 2 0 0 0 0
2054	1031735 24 0 0 0 0 2 0 0 0 0
2056	1031759 13 0 0 0 0 1 31 31 31 961
2073	1031772 24 0 0 0 0 2 0 0 0 0
2087	1031796 36 0 0 0 0 3 0 2 2 4
2088	1031832 12 0 0 0 0 1 1 1 1 1
2090	1031844 12 0 0 0 0 1 0 0 0 0
2103	1031856 12 0 0 0 0 1 0 0 0 0
2104	1031868 12 0 0 0 0 1 0 0 0 0
2105	1031880 12 0 0 0 0 1 0 0 0 0
2120	1031892 60 0 0 0 0 5 0 0 0 0
2121	1031952 60 0 0 0 0 5 0 0 0 0
2132	1032012 24 0 0 0 0 2 0 0 0 0
2134	1032036 24 0 0 0 0 2 0 0 0 0
2135	1032060 24 0 0 0 0 2 0 0 0 0
2137	1032084 13 0 0 0 0 1 31 31 31 961
2154	1032097 24 0 0 0 0 2 0 0 0 0
2168	1032121 36 0 0 0 0 3 0 2 2 4
2169	1032157 12 0 0 0 0 1 1 1 1 1
2171	1032169 12 0 0 0 0 1 0 0 0 0
2184	1032181 12 0 0 0 0 1 0 0 0 0
2185	1032193 12 0 0 0 0 1 0 0 0 0
2186	1032205 12 0 0 0 0 1 0 0 0 0
2201	1032217 60 0 0 0 0 5 0 0 0 0
2202	1032277 60 0 0 0 0 5 0 0 0 0
2213	1032337 24 0 0 0 0 2 0 0 0 0
2215	1032361 24 0 0 0 0 2 0 0 0 0
2216	1032385 24 0 0 0 0 2 0 0 0 0
2218	1032409 13 0 0 0 0 1 31 31 31 961
2235	1032422 24 0 0 0 0 2 0 0 0 0
2249	1032446 36 0 0 0 0 3 0 2 2 4
2250	1032482 12 0 0 0 0 1 1 1 1 1
2252	1032494 12 0 0 0 0 1 0 0 0 0
2265	1032506 12 0 0 0 0 1 0 0 0 0
2266	1032518 12 0 0 0 0 1 0 0 0 0
2267	1032530 12 0 0 0 0 1 0 0 0 0
2282	1032542 60 0 0 0 0 5 0 0 0 0
2283	1032602 60 0 0 0 0 5 0 0 0 0
2294	1032662 24 0 0 0 0 2 0 0 0 0
2296	1032686 24 0 0 0 0 2 0 0 0 0
2297	1032710 24 0 0 0 0 2 0 0 0 0
2299	1032734 13 0 0 0 0 1 31 31 31 961
2316	1032747 24 0 0 0 0 2 0 0 0 0
2330	1032771 36 0 0 0 0 3 0 2 2 4
2331	1032807 12 0 0 0 0 1 1 1 1 1
2333	1032819 12 0 0 0 0 1 0 0 0 0
2346	1032831 12 0 0 0 0 1 0 0 0 0
2347	1032843 12 0 0 0 0 1 0 0 0 0
2348	1032855 12 0 0 0 0 1 0 0 0 0
2363	1032867 60 0 0 0 0 5 0 0 0 0
2364	1032927 60 0 0 0 0 5 0 0 0 0
2375	1032987 24 0 0 0 0 2 0 0 0 0
2377	1033011 24 0 0 0 0 2 0 0 0 0
2378	1033035 24 0 0 0 0 2 0 0 0 0
2380	1033059 13 0 0 0 0 1 31 31 31 961
2397	1033072 24 0 0 0 0 2 0 0 0 0
2411	1033096 36 0 0 0 0 3 0 2 2 4
2412	1033132 12 0 0 0 0 1 1 1 1 1
2414	1033144 12 0 0 0 0 1 0 0 0 0
2427	1033156 12 0 0 0 0 1 0 0 0 0
2428	1033168 12 0 0 0 0 1 0 0 0 0
2429	1033180 12 0 0 0 0 1 0 0 0 0
2444	1033192 60 0 0 0 0 5 0 0 0 0
2445	1033252 60 0 0 0 0 5 0 0 0 0
2456	1033312 24 0 0 0 0 2 0 0 0 0
2458	1033336 24 0 0 0 0 2 0 0 0 0
2459	1033360 24 0 0 0 0 2 0 0 0 0
2461	1033384 13 0 0 0 0 1 31 31 31 961
2478	1033397 24 0 0 0 0 2 0 0 0 0
2492	1033421 36 0 0 0 0 3 0 2 2 4
2493	1033457 12 0 0 0 0 1 1 1 1 1
2495	1033469 12 0 0 0 0 1 0 0 0 0
2508	1033481 12 0 0 0 0 1 0 0 0 0
2509	1033493 12 0 0 0 0 1 0 0 0 0
2510	1033505 12 0 0 0 0 1 0 0 0 0
2525	1033517 60 0 0 0 0 5 0 0 0 0
2526	1033577 60 0 0 0 0 5 0 0 0 0
2537	1033637 24 0 0 0 0 2 0 0 0 0
2539	1033661 24 0 0 0 0 2 0 0 0 0
2540	1033685 24 0 0 0 0 2 0 0 0 0
2542	1033709 13 0 0 0 0 1 31 31 31 961
2559	1033722 24 0 0 0 0 2 0 0 0 0
2573	1033746 36 0 0 0 0 3 0 2 2 4
2574	1033782 12 0 0 0 0 1 1 1 1 1
2576	1033794 12 0 0 0 0 1 0 0 0 0
2589	1033806 12 0 0 0 0 1 0 0 0 0
2590	1033818 12 0 0 0 0 1 0 0 0 0
2591	1033830 12 0 0 0 0 1 0 0 0 0
2606	1033842 60 0 0 0 0 5 0 0 0 0
2607	1033902 60 0 0 0 0 5 0 0 0 0
2618	1033962 24 0 0 0 0 2 0 0 0 0
2620	1033986 24 0 0 0 0 2 0 0 0 0
2621	1034010 24 0 0 0 0 2 0 0 0 0
2623	1034034 13 0 0 0 0 1 31 31 31 961
2640	1034047 24 0 0 0 0 2 0 0 0 0
2654	1034071 36 0 0 0 0 3 0 2 2 4
2655	1034107 12 0 0 0 0 1 1 1 1 1
2657	1034119 12 0 0 0 0 1 0 0 0 0
2670	1034131 12 0 0 0 0 1 0 0 0 0
2671	1034143 12 0 0 0 0 1 0 0 0 0
2672	1034155 12 0 0 0 0 1 0 0 0 0
2687	1034167 60 0 0 0 0 5 0 0 0 0
2688	1034227 60 0 0 0 0 5 0 0 0 0
2699	1034287 24 0 0 0 0 2 0 0 0 0
2701	1034311 24 0 0 0 0 2 0 0 0 0
2702	1034335 24 0 0 0 0 2 0 0 0 0
2704	1034359 13 0 0 0 0 1 31 31 31 961
2721	1034372 24 0 0 0 0 2 0 0 0 0
2735	1034396 36 0 0 0 0 3 0 2 2 4
2736	1034432 12 0 0 0 0 1 1 1 1 1
2738	1034444 12 0 0 0 0 1 0 0 0 0
2751	1034456 12 0 0 0 0 1 0 0 0 0
2752	1034468 12 0 0 0 0 1 0 0 0 0
2753	1034480 12 0 0 0 0 1 0 0 0 0
2768	1034492 60 0 0 0 0 5 0 0 0 0
2769	1034552 60 0 0 0 0 5 0 0 0 0
2780	1034612 24 0 0 0 0 2 0 0 0 0
2782	1034636 24 0 0 0 0 2 0 0 0 0
2783	1034660 24 0 0 0 0 2 0 0 0 0
2785	1034684 13 0 0 0 0 1 31 31 31 961
2802	1034697 24 0 0 0 0 2 0 0 0 0
2816	1034721 36 0 0 0 0 3 0 2 2 4
2817	1034757 12 0 0 0 0 1 1 1 1 1
2819	1034769 12 0 0 0 0 1 0 0 0 0
2832	1034781 12 0 0 0 0 1 0 0 0 0
2833	1034793 12 0 0 0 0 1 0 0 0 0
2834	1034805 12 0 0 0 0 1 0 0 0 0
2849	1034817 60 0 0 0 0 5 0 0 0 0
2850	1034877 60 0 0 0 0 5 0 0 0 0
2861	1034937 24 0 0 0 0 2 0 0 0 0
2863	1034961 24 0 0 0 0 2 0 0 0 0
2864	1034985 24 0 0 0 0 2 0 0 0 0
2866	1035009 13 0 0 0 0 1 31 31 31 961
2883	1035022 24 0 0 0 0 2 0 0 0 0
2897	1035046 36 0 0 0 0 3 0 2 2 4
2898	1035082 12 0 0 0 0 1 1 1 1 1
2900	1035094 12 0 0 0 0 1 0 0 0 0
2913	1035106 12 0 0 0 0 1 0 0 0 0
2914	1035118 12 0 0 0 0 1 0 0 0 0
2915	1035130 12 0 0 0 0 1 0 0 0 0
2930	1035142 60 0 0 0 0 5 0 0 0 0
2931	1035202 60 0 0 0 0 5 0 0 0 0
2942	1035262 24 0 0 0 0 2 0 0 0 0
2944	1035286 24 0 0 0 0 2 0 0 0 0
2945	1035310 24 0 0 0 0 2 0 0 0 0
2947	1035334 13 0 0 0 0 1 31 31 31 961
2964	1035347 24 0 0 0 0 2 0 0 0 0
2978	1035371 36 0 0 0 0 3 0 2 2 4
2979	1035407 12 0 0 0 0 1 1 1 1 1
2981	1035419 12 0 0 0 0 1 0 0 0 0
2994	1035431 12 0 0 0 0 1 0 0 0 0
2995	1035443 12 0 0 0 0 1 0 0 0 0
2996	1035455 12 0 0 0 0 1 0 0 0 0
3011	1035467 60 0 0 0 0 5 0 0 0 0
3012	1035527 60 0 0 0 0 5 0 0 0 0
3023	1035587 24 0 0 0 0 2 0 0 0 0
3025	1035611 24 0 0 0 0 2 0 0 0 0
3026	1035635 24 0 0 0 0 2 0 0 0 0
3028	1035659 13 0 0 0 0 1 31 31 31 961
3045	1035672 24 0 0 0 0 2 0 0 0 0
3059	1035696 36 0 0 0 0 3 0 2 2 4
3060	1035732 12 0 0 0 0 1 1 1 1 1
3062	1035744 12 0 0 0 0 1 0 0 0 0
3075	1035756 12 0 0 0 0 1 0 0 0 0
3076	1035768 12 0 0 0 0 1 0 0 0 0
3077	1035780 12 0 0 0 0 1 0 0 0 0
3092	1035792 60 0 0 0 0 5 0 0 0 0
3093	1035852 60 0 0 0 0 5 0 0 0 0
3104	1035912 24 0 0 0 0 2 0 0 0 0
3106	1035936 24 0 0 0 0 2 0 0 0 0
3107	1035960 24 0 0 0 0 2 0 0 0 0
3109	1035984 13 0 0 0 0 1 31 31 31 961
3126	1035997 24 0 0 0 0 2 0 0 0 0
3140	1036021 36 0 0 0 0 3 0 2 2 4
3141	1036057 12 0 0 0 0 1 1 1 1 1
3143	1036069 12 0 0 0 0 1 0 0 0 0
3156	1036081 12 0 0 0 0 1 0 0 0 0
3157	1036093 12 0 0 0 0 1 0 0 0 0
3158	1036105 12 0 0 0 0 1 0 0 0 0
3173	1036117 60 0 0 0 0 5 0 0 0 0
3174	1036177 60 0 0 0 0 5 0 0 0 0
3185	1036237 24 0 0 0 0 2 0 0 0 0
3187	1036261 24 0 0 0 0 2 0 0 0 0
3188	1036285 24 0 0 0 0 2 0 0 0 0
3190	1036309 13 0 0 0 0 1 31 31 31 961
3207	1036322 24 0 0 0 0 2 0 0 0 0
3221	1036346 36 0 0 0 0 3 0 2 2 4
3222	1036382 12 0 0 0 0 1 1 1 1 1
3224	1036394 12 0 0 0 0 1 0 0 0 0
3237	1036406 12 0 0 0 0 1 0 0 0 0
3238	1036418 12 0 0 0 0 1 0 0 0 0
3239	1036430 12 0 0 0 0 1 0 0 0 0
3254	1036442 60 0 0 0 0 5 0 0 0 0
3255	1036502 60 0 0 0 0 5 0 0 0 0
3266	1036562 24 0 0 0 0 2 0 0 0 0
3268	1036586 24 0 0 0 0 2 0 0 0 0
3269	1036610 24 0 0 0 0 2 0 0 0 0
3271	1036634 13 0 0 0 0 1 31 31 31 961
3288	1036647 24 0 0 0 0 2 0 0 0 0
3302	1036671 36 0 0 0 0 3 0 2 2 4
3303	1036707 12 0 0 0 0 1 1 1 1 1
3305	1036719 12 0 0 0 0 1 0 0 0 0
3318	1036731 12 0 0 0 0 1 0 0 0 0
3319	1036743 12 0 0 0 0 1 0 0 0 0
3320	1036755 12 0 0 0 0 1 0 0 0 0
3335	1036767 60 0 0 0 0 5 0 0 0 0
3336	1036827 60 0 0 0 0 5 0 0 0 0
3347	1036887 24 0 0 0 0 2 0 0 0 0
3349	1036911 24 0 0 0 0 2 0 0 0 0
3350	1036935 24 0 0 0 0 2 0 0 0 0
3352	1036959 13 0 0 0 0 1 31 31 31 961
3369	1036972 24 0 0 0 0 2 0 0 0 0
3383	1036996 36 0 0 0 0 3 0 2 2 4
3384	1037032 12 0 0 0 0 1 1 1 1 1
3386	1037044 12 0 0 0 0 1 0 0 0 0
3399	1037056 12 0 0 0 0 1 0 0 0 0
3400	1037068 12 0 0 0 0 1 0 0 0 0
3401	1037080 12 0 0 0 0 1 0 0 0 0
3416	1037092 60 0 0 0 0 5 0 0 0 0
3417	1037152 60 0 0 0 0 5 0 0 0 0
3428	1037212 24 0 0 0 0 2 0 0 0 0
3430	1037236 24 0 0 0 0 2 0 0 0 0
3431	1037260 24 0 0 0 0 2 0 0 0 0
3433	1037284 13 0 0 0 0 1 31 31 31 961
3450	1037297 24 0 0 0 0 2 0 0 0 0
3464	1037321 36 0 0 0 0 3 0 2 2 4
3465	1037357 12 0 0 0 0 1 1 1 1 1
3467	1037369 12 0 0 0 0 1 0 0 0 0
3480	1037381 12 0 0 0 0 1 0 0 0 0
3481	1037393 12 0 0 0 0 1 0 0 0 0
3482	1037405 12 0 0 0 0 1 0 0 0 0
3497	1037417 60 0 0 0 0 5 0 0 0 0
3498	1037477 60 0 0 0 0 5 0 0 0 0
3509	1037537 24 0 0 0 0 2 0 0 0 0
3511	1037561 24 0 0 0 0 2 0 0 0 0
3512	1037585 24 0 0 0 0 2 0 0 0 0
3514	1037609 13 0 0 0 0 1 31 31 31 961
3531	1037622 24 0 0 0 0 2 0 0 0 0
3545	1037646 36 0 0 0 0 3 0 2 2 4
3546	1037682 12 0 0 0 0 1 1 1 1 1
3548	1037694 12 0 0 0 0 1 0 0 0 0
3561	1037706 12 0 0 0 0 1 0 0 0 0
3562	1037718 12 0 0 0 0 1 0 0 0 0
3563	1037730 12 0 0 0 0 1 0 0 0 0
3578	1037742 60 0 0 0 0 5 0 0 0 0
3579	1037802 60 0 0 0 0 5 0 0 0 0
3590	1037862 24 0 0 0 0 2 0 0 0 0
3592	1037886 24 0 0 0 0 2 0 0 0 0
3593	1037910 24 0 0 0 0 2 0 0 0 0
3595	1037934 13 0 0 0 0 1 31 31 31 961
3612	1037947 24 0 0 0 0 2 0 0 0 0
3626	1037971 36 0 0 0 0 3 0 2 2 4
3627	1038007 12 0 0 0 0 1 1 1 1 1
3629	1038019 12 0 0 0 0 1 0 0 0 0
3642	1038031 12 0 0 0 0 1 0 0 0 0
3643	1038043 12 0 0 0 0 1 0 0 0 0
3644	1038055 12 0 0 0 0 1 0 0 0 0
3659	1038067 60 0 0 0 0 5 0 0 0 0
3660	1038127 60 0 0 0 0 5 0 0 0 0
3671	1038187 24 0 0 0 0 2 0 0 0 0
3673	1038211 24 0 0 0 0 2 0 0 0 0
3674	1038235 24 0 0 0 0 2 0 0 0 0
3676	1038259 13 0 0 0 0 1 31 31 31 961
3693	1038272 24 0 0 0 0 2 0 0 0 0
3707	1038296 36 0 0 0 0 3 0 2 2 4
3708	1038332 12 0 0 0 0 1 1 1 1 1
3710	1038344 12 0 0 0 0 1 0 0 0 0
3723	1038356 12 0 0 0 0 1 0 0 0 0
3724	1038368 12 0 0 0 0 1 0 0 0 0
3725	1038380 12 0 0 0 0 1 0 0 0 0
3740	1038392 60 0 0 0 0 5 0 0 0 0
3741	1038452 60 0 0 0 0 5 0 0 0 0
3752	1038512 24 0 0 0 0 2 0 0 0 0
3754	1038536 24 0 0 0 0 2 0 0 0 0
3755	1038560 24 0 0 0 0 2 0 0 0 0
3757	1038584 13 0 0 0 0 1 31 31 31 961
3774	1038597 24 0 0 0 0 2 0 0 0 0
3788	1038621 36 0 0 0 0 3 0 2 2 4
3789	1038657 12 0 0 0 0 1 1 1 1 1
3791	1038669 12 0 0 0 0 1 0 0 0 0
3804	1038681 12 0 0 0 0 1 0 0 0 0
3805	1038693 12 0 0 0 0 1 0 0 0 0
3806	1038705 12 0 0 0 0 1 0 0 0 0
3821	1038717 60 0 0 0 0 5 0 0 0 0
3822	1038777 60 0 0 0 0 5 0 0 0 0
3833	1038837 24 0 0 0 0 2 0 0 0 0
3835	1038861 24 0 0 0 0 2 0 0 0 0
3836	1038885 24 0 0 0 0 2 0 0 0 0
3838	1038909 13 0 0 0 0 1 31 31 31 961
3855	1038922 24 0 0 0 0 2 0 0 0 0
3869	1038946 36 0 0 0 0 3 0 2 2 4
3870	1038982 12 0 0 0 0 1 1 1 1 1
3872	1038994 12 0 0 0 0 1 0 0 0 0
3885	1039006 12 0 0 0 0 1 0 0 0 0
3886	1039018 12 0 0 0 0 1 0 0 0 0
3887	1039030 12 0 0 0 0 1 0 0 0 0
3902	1039042 60 0 0 0 0 5 0 0 0 0
3903	1039102 60 0 0 0 0 5 0 0 0 0
3914	1039162 24 0 0 0 0 2 0 0 0 0
3916	1039186 24 0 0 0 0 2 0 0 0 0
3917	1039210 24 0 0 0 0 2 0 0 0 0
3919	1039234 13 0 0 0 0 1 31 31 31 961
3936	1039247 24 0 0 0 0 2 0 0 0 0
3950	1039271 36 0 0 0 0 3 0 2 2 4
3951	1039307 12 0 0 0 0 1 1 1 1 1
3953	1039319 12 0 0 0 0 1 0 0 0 0
3966	1039331 12 0 0 0 0 1 0 0 0 0
3967	1039343 12 0 0 0 0 1 0 0 0 0
3968	1039355 12 0 0 0 0 1 0 0 0 0
3983	1039367 60 0 0 0 0 5 0 0 0 0
3984	1039427 60 0 0 0 0 5 0 0 0 0
3995	1039487 24 0 0 0 0 2 0 0 0 0
3997	1039511 24 0 0 0 0 2 0 0 0 0
3998	1039535 24 0 0 0 0 2 0 0 0 0
4000	1039559 13 0 0 0 0 1 31 31 31 961
4017	1039572 24 0 0 0 0 2 0 0 0 0
4031	1039596 36 0 0 0 0 3 0 2 2 4
4032	1039632 12 0 0 0 0 1 1 1 1 1
4034	1039644 12 0 0 0 0 1 0 0 0 0
4047	1039656 12 0 0 0 0 1 0 0 0 0
4048	1039668 12 0 0 0 0 1 0 0 0 0
4049	1039680 12 0 0 0 0 1 0 0 0 0

