version 3
run WSN_Network-0-20250527-11:55:44-17188
attr configname WSN_Network
attr datetime 20250527-11:55:44
attr datetimef 20250527-115544
attr experiment WSN_Network
attr inifile omnetpp.ini
attr iterationvars ""
attr iterationvarsd ""
attr iterationvarsf ""
attr measurement ""
attr network WSN_Network
attr processid 17188
attr repetition 0
attr replication #0
attr resultdir results
attr runnumber 0
attr seedset 0
config image-path ../../inet4.5/images
config **.client.numApps 1
config **.client.app[*].typename TcpSessionApp
config **.client.app[*].active true
config **.client.app[*].localAddress "\"\""
config **.client.app[*].localPort -1
config **.client.app[*].connectAddress "\"server\""
config **.client.app[*].connectPort 1000
config **.client.app[*].tOpen 1.0s
config **.client.app[*].tSend 1.1s
config **.client.app[*].sendBytes 1MiB
config **.client.app[*].sendScript "\"\""
config **.client.app[*].tClose 0s
config **.server.numApps 1
config **.server.app[*].typename TcpEchoApp
config **.server.app[0].localAddress "\"\""
config **.server.app[0].localPort 1000
config **.server.app[0].echoFactor 2.0
config **.server.app[0].echoDelay 0s
config **.eth[*].duplexMode true
config **.ppp[*].queue.typename DropTailQueue
config **.ppp[*].queue.packetCapacity 10
config *.numSensors 50
config **.constraintAreaMinX 0m
config **.constraintAreaMinY 0m
config **.constraintAreaMinZ 0m
config **.constraintAreaMaxX 2500m
config **.constraintAreaMaxY 2500m
config **.constraintAreaMaxZ 50m
config *.Sensor_Node[*].mobility.typename MassMobility
config *.Sensor_Node[*].mobility.changeInterval "truncnormal(2s, 0.5s)"
config *.Sensor_Node[*].mobility.angleDelta "normal(0deg, 30deg)"
config *.Sensor_Node[*].mobility.speed "truncnormal(20mps, 8mps)"
config *.Sensor_Node[*].mobility.updateInterval 100ms
config *.Sensor_Node[*].mobility.initFromDisplayString false
config *.Sensor_Node[*].networkLayer.typename Ipv4NetworkLayer
config *.Sensor_Node[*].networkLayer.ip.routingProtocol.typename OlsrRouting
config *.Sensor_Node[*].networkLayer.ip.forward true
config *.Sensor_Node[0].numApps 0
config *.Sensor_Node[*].numApps 2
config *.Sensor_Node[*].app[*].typename PingApp
config *.Sensor_Node[*].app[*].destAddr "\"Sensor_Node[0]\""
config *.Sensor_Node[*].app[0].startTime uniform(1s,5s)
config *.Sensor_Node[*].app[1].startTime 5s+uniform(1s,5s)
config *.Sensor_Node[*].app[*].printPing true
config *.Sensor_Node[*].wlan[*].radio.transmitter.power 5mW
config network WSN_Network
config sim-time-limit 500s
config total-stack 2MiB

vector 0 WSN_Network.server.lo[0].lo rcvdPkFromHl:vector(packetBytes) ETV
attr interpolationmode none
attr recordingmode vector(packetBytes)
attr source packetReceivedFromUpper
attr title "packets received from higher layer, packetBytes"
vector 1 WSN_Network.server.lo[0].lo passedUpPk:vector(packetBytes) ETV
attr interpolationmode none
attr recordingmode vector(packetBytes)
attr source packetSentToUpper
attr title "packets passed to higher layer, packetBytes"
vector 2 WSN_Network.server.lo[0] packetDropInterfaceDown:vector(packetBytes) ETV
attr interpolationmode none
attr recordingmode vector(packetBytes)
attr source packetDropReasonIsInterfaceDown(packetDropped)
attr title "packet drops: interface down, packetBytes"
vector 3 WSN_Network.server.lo[0] packetDropNoCarrier:vector(packetBytes) ETV
attr interpolationmode none
attr recordingmode vector(packetBytes)
attr source packetDropReasonIsNoCarrier(packetDropped)
attr title "packet drops: no carrier, packetBytes"
vector 4 WSN_Network.server.ipv4.ip packetDropAddressResolutionFailed:vector(packetBytes) ETV
attr interpolationmode none
attr recordingmode vector(packetBytes)
attr source packetDropReasonIsAddressResolutionFailed(packetDropped)
attr title "packet drop: address resolution failed, packetBytes"
vector 5 WSN_Network.server.ipv4.ip packetDropHopLimitReached:vector(packetBytes) ETV
attr interpolationmode none
attr recordingmode vector(packetBytes)
attr source packetDropReasonIsHopLimitReached(packetDropped)
attr title "packet drop: hop limit reached, packetBytes"
vector 6 WSN_Network.server.ipv4.ip packetDropForwardingDisabled:vector(packetBytes) ETV
attr interpolationmode none
attr recordingmode vector(packetBytes)
attr source packetDropReasonIsForwardingDisabled(packetDropped)
attr title "packet drop: forwarding disabled, packetBytes"
vector 7 WSN_Network.server.ipv4.ip packetDropNoInterfaceFound:vector(packetBytes) ETV
attr interpolationmode none
attr recordingmode vector(packetBytes)
attr source packetDropReasonIsNoInterfaceFound(packetDropped)
attr title "packet drop: no interface found, packetBytes"
vector 8 WSN_Network.server.ipv4.ip packetDropNoRouteFound:vector(packetBytes) ETV
attr interpolationmode none
attr recordingmode vector(packetBytes)
attr source packetDropReasonIsNoRouteFound(packetDropped)
attr title "packet drop: no route found, packetBytes"
vector 9 WSN_Network.server.ipv4.ip packetDropUndefined:vector(packetBytes) ETV
attr interpolationmode none
attr recordingmode vector(packetBytes)
attr source packetDropReasonIsUndefined(packetDropped)
attr title "packet drop: undefined, packetBytes"
vector 10 WSN_Network.server.ipv4.arp arpRequestSent:vector(packetBytes) ETV
attr recordingmode vector(packetBytes)
attr source arpRequestSent
attr title "ARP request sent, packetBytes"
vector 11 WSN_Network.server.ipv4.arp arpReplySent:vector(packetBytes) ETV
attr recordingmode vector(packetBytes)
attr source arpReplySent
attr title "ARP replies sent, packetBytes"
vector 12 WSN_Network.server.udp packetSent:vector(packetBytes) ETV
attr interpolationmode none
attr recordingmode vector(packetBytes)
attr source packetSent
attr title "packets sent, packetBytes"
vector 13 WSN_Network.server.udp packetReceived:vector(packetBytes) ETV
attr interpolationmode none
attr recordingmode vector(packetBytes)
attr source packetReceived
attr title "packets received, packetBytes"
vector 14 WSN_Network.server.udp passedUpPk:vector(count) ETV
attr interpolationmode none
attr recordingmode vector(count)
attr source packetSentToUpper
attr title "packets passed up, count"
vector 15 WSN_Network.server.udp droppedPkWrongPort:vector(count) ETV
attr interpolationmode none
attr recordingmode vector(count)
attr source packetDropReasonIsNoPortFound(packetDropped)
attr title "packets dropped (wrong port), count"
vector 16 WSN_Network.server.udp droppedPkBadChecksum:vector(count) ETV
attr interpolationmode none
attr recordingmode vector(count)
attr source packetDropReasonIsIncorrectlyReceived(packetDropped)
attr title "packets dropped (checksum error), count"
vector 17 WSN_Network.server.app[0] packetReceived:vector(packetBytes) ETV
attr interpolationmode none
attr recordingmode vector(packetBytes)
attr source packetReceived
attr title "packets received, packetBytes"
vector 18 WSN_Network.server.app[0] packetSent:vector(packetBytes) ETV
attr interpolationmode none
attr recordingmode vector(packetBytes)
attr source packetSent
attr title "packets sent, packetBytes"
vector 19 WSN_Network.server.app[0] endToEndDelay:vector ETV
attr interpolationmode none
attr recordingmode vector
attr source dataAge(packetReceived)
attr title "end-to-end delay"
attr unit s
vector 20 WSN_Network.Sensor_Node[0].lo[0].lo rcvdPkFromHl:vector(packetBytes) ETV
attr interpolationmode none
attr recordingmode vector(packetBytes)
attr source packetReceivedFromUpper
attr title "packets received from higher layer, packetBytes"
vector 21 WSN_Network.Sensor_Node[0].lo[0].lo passedUpPk:vector(packetBytes) ETV
attr interpolationmode none
attr recordingmode vector(packetBytes)
attr source packetSentToUpper
attr title "packets passed to higher layer, packetBytes"
vector 22 WSN_Network.Sensor_Node[0].lo[0] packetDropInterfaceDown:vector(packetBytes) ETV
attr interpolationmode none
attr recordingmode vector(packetBytes)
attr source packetDropReasonIsInterfaceDown(packetDropped)
attr title "packet drops: interface down, packetBytes"
vector 23 WSN_Network.Sensor_Node[0].lo[0] packetDropNoCarrier:vector(packetBytes) ETV
attr interpolationmode none
attr recordingmode vector(packetBytes)
attr source packetDropReasonIsNoCarrier(packetDropped)
attr title "packet drops: no carrier, packetBytes"
vector 24 WSN_Network.Sensor_Node[0].wlan[0].mac.dcf.channelAccess.pendingQueue queueLength:vector ETV
attr autoWarmupFilter false
attr interpolationmode sample-hold
attr recordingmode vector
attr source "warmup(atomic(constant0(packetPushEnded) + count(packetPushStarted) - count(packetPulled) - count(packetRemoved) - count(packetDropped)))"
attr title "queue length"
attr unit pk
vector 25 WSN_Network.Sensor_Node[0].wlan[0].mac.dcf.channelAccess.pendingQueue queueBitLength:vector ETV
attr autoWarmupFilter false
attr interpolationmode sample-hold
attr recordingmode vector
attr source "warmup(atomic(constant0(packetPushEnded) + sum(packetLength(packetPushStarted)) - sum(packetLength(packetPulled)) - sum(packetLength(packetRemoved)) - sum(packetLength(packetDropped))))"
attr title "queue bit length"
attr unit b
vector 26 WSN_Network.Sensor_Node[0].wlan[0].mac.dcf.channelAccess.pendingQueue queueingTime:vector ETV
attr interpolationmode none
attr recordingmode vector
attr source queueingTime(packetPulled)
attr title "queueing times"
attr unit s
vector 27 WSN_Network.Sensor_Node[0].wlan[0].mac.dcf.channelAccess.pendingQueue incomingPacketLengths:vector ETV
attr interpolationmode none
attr recordingmode vector
attr source packetLength(packetPushStarted)
attr title "incoming packet lengths"
attr unit b
vector 28 WSN_Network.Sensor_Node[0].wlan[0].mac.dcf.channelAccess.pendingQueue incomingDataRate:vector ETV
attr interpolationmode linear
attr recordingmode vector
attr source throughput(packetPushStarted)
attr title "incoming datarate"
attr unit bps
vector 29 WSN_Network.Sensor_Node[0].wlan[0].mac.dcf.channelAccess.pendingQueue outgoingPacketLengths:vector ETV
attr interpolationmode none
attr recordingmode vector
attr source packetLength(packetPulled)
attr title "outgoing packet lengths"
attr unit b
vector 30 WSN_Network.Sensor_Node[0].wlan[0].mac.dcf.channelAccess.pendingQueue outgoingDataRate:vector ETV
attr interpolationmode linear
attr recordingmode vector
attr source throughput(packetPulled)
attr title "outgoing datarate"
attr unit bps
vector 31 WSN_Network.Sensor_Node[0].wlan[0].mac.dcf.channelAccess.pendingQueue droppedPacketLengthsQueueOverflow:vector ETV
attr interpolationmode none
attr recordingmode vector
attr source packetLength(packetDropReasonIsQueueOverflow(packetDropped))
attr title "dropped packet lengths: queue overflow"
attr unit b
vector 32 WSN_Network.Sensor_Node[0].wlan[0].mac.dcf.channelAccess.pendingQueue flowQueueingTime:vector ETV
attr interpolationmode none
attr recordingmode vector
attr source queueingTime(demuxFlow(packetPulled))
attr title "flow queueing times"
attr unit s
vector 33 WSN_Network.Sensor_Node[0].wlan[0].mac.dcf.channelAccess.pendingQueue flowIncomingDataRate:vector ETV
attr interpolationmode linear
attr recordingmode vector
attr source throughput(flowPacketLength(demuxFlow(packetPushStarted)))
attr title "flow specific incoming data rate"
attr unit bps
vector 34 WSN_Network.Sensor_Node[0].wlan[0].mac.dcf.channelAccess.pendingQueue flowOutgoingDataRate:vector ETV
attr interpolationmode linear
attr recordingmode vector
attr source throughput(flowPacketLength(demuxFlow(packetPulled)))
attr title "flow specific outgoing data rate"
attr unit bps
vector 35 WSN_Network.Sensor_Node[0].wlan[0].mac.dcf.channelAccess.inProgressFrames queueingTime:vector ETV
attr interpolationmode none
attr recordingmode vector
attr source queueingTime(packetDequeued)
attr title "queueing times"
vector 36 WSN_Network.Sensor_Node[0].wlan[0].mac.dcf.channelAccess.inProgressFrames queueLength:vector ETV
attr autoWarmupFilter false
attr interpolationmode sample-hold
attr recordingmode vector
attr source "warmup(count(packetEnqueued) - count(packetDequeued))"
attr title "queue length"
vector 37 WSN_Network.Sensor_Node[0].wlan[0].mac.dcf.channelAccess.contention backoffPeriodGenerated:vector ETV
attr interpolationmode none
attr recordingmode vector
attr title "backoff periods"
vector 38 WSN_Network.Sensor_Node[0].wlan[0].mac.dcf.channelAccess.contention backoffActive:vector ETV
attr autoWarmupFilter false
attr interpolationmode sample-hold
attr recordingmode vector
attr source warmup(count(backoffStarted)-count(backoffStopped))
attr title "backoff active"
vector 39 WSN_Network.Sensor_Node[0].wlan[0].mac.dcf.channelAccess.contention stateChanged:vector ETV
attr enum IDLE,DEFER,IFS_AND_BACKOFF
attr interpolationmode none
attr recordingmode vector
attr title "contention state changed"
attr type enum
vector 40 WSN_Network.Sensor_Node[0].wlan[0].mac.dcf.recipientMacDataService packetDropDuplicateDetected:vector(packetBytes) ETV
attr interpolationmode none
attr recordingmode vector(packetBytes)
attr source packetDropReasonIsDuplicateDetected(packetDropped)
attr title "packet drops: duplicate detected, packetBytes"
vector 41 WSN_Network.Sensor_Node[0].wlan[0].mac.dcf.recoveryProcedure contentionWindowChanged:vector ETV
attr interpolationmode sample-hold
attr recordingmode vector
attr title "contention window"
vector 42 WSN_Network.Sensor_Node[0].wlan[0].mac.dcf packetSentToPeer:vector(packetBytes) ETV
attr interpolationmode none
attr recordingmode vector(packetBytes)
attr title "packets sent, packetBytes"
vector 43 WSN_Network.Sensor_Node[0].wlan[0].mac.dcf packetSentToPeerUnicast:vector(packetBytes) ETV
attr interpolationmode none
attr recordingmode vector(packetBytes)
attr source ieee80211Unicast(packetSentToPeer)
attr title "packets sent: unicast, packetBytes"
vector 44 WSN_Network.Sensor_Node[0].wlan[0].mac.dcf packetSentToPeerMulticast:vector(packetBytes) ETV
attr interpolationmode none
attr recordingmode vector(packetBytes)
attr source ieee80211Multicast(packetSentToPeer)
attr title "packets sent: multicast, packetBytes"
vector 45 WSN_Network.Sensor_Node[0].wlan[0].mac.dcf packetSentToPeerBroadcast:vector(packetBytes) ETV
attr interpolationmode none
attr recordingmode vector(packetBytes)
attr source ieee80211Broadcast(packetSentToPeer)
attr title "packets sent: broadcast , packetBytes"
vector 46 WSN_Network.Sensor_Node[0].wlan[0].mac.dcf packetSentToPeerWithRetry:vector(packetBytes) ETV
attr interpolationmode none
attr recordingmode vector(packetBytes)
attr source ieee80211Retry(packetSentToPeer)
attr title "packets sent: with retry, packetBytes"
vector 47 WSN_Network.Sensor_Node[0].wlan[0].mac.dcf packetSentToPeerWithoutRetry:vector(packetBytes) ETV
attr interpolationmode none
attr recordingmode vector(packetBytes)
attr source ieee80211NotRetry(packetSentToPeer)
attr title "packets sent: without retry, packetBytes"
vector 48 WSN_Network.Sensor_Node[0].wlan[0].mac.dcf packetReceivedFromPeer:vector(packetBytes) ETV
attr interpolationmode none
attr recordingmode vector(packetBytes)
attr title "packets received, packetBytes"
vector 49 WSN_Network.Sensor_Node[0].wlan[0].mac.dcf packetReceivedFromPeerUnicast:vector(packetBytes) ETV
attr interpolationmode none
attr recordingmode vector(packetBytes)
attr source ieee80211Unicast(packetReceivedFromPeer)
attr title "packets received: unicast, packetBytes"
vector 50 WSN_Network.Sensor_Node[0].wlan[0].mac.dcf packetReceivedFromPeerMulticast:vector(packetBytes) ETV
attr interpolationmode none
attr recordingmode vector(packetBytes)
attr source ieee80211Multicast(packetReceivedFromPeer)
attr title "packets received: multicast, packetBytes"
vector 51 WSN_Network.Sensor_Node[0].wlan[0].mac.dcf packetReceivedFromPeerBroadcast:vector(packetBytes) ETV
attr interpolationmode none
attr recordingmode vector(packetBytes)
attr source ieee80211Broadcast(packetReceivedFromPeer)
attr title "packets received: broadcast, packetBytes"
vector 52 WSN_Network.Sensor_Node[0].wlan[0].mac.dcf packetReceivedFromPeerWithRetry:vector(packetBytes) ETV
attr interpolationmode none
attr recordingmode vector(packetBytes)
attr source ieee80211Retry(packetReceivedFromPeer)
attr title "packets received: with retry, packetBytes"
vector 53 WSN_Network.Sensor_Node[0].wlan[0].mac.dcf packetReceivedFromPeerWithoutRetry:vector(packetBytes) ETV
attr interpolationmode none
attr recordingmode vector(packetBytes)
attr source ieee80211NotRetry(packetReceivedFromPeer)
attr title "packets received: without retry, packetBytes"
vector 54 WSN_Network.Sensor_Node[0].wlan[0].mac.dcf packetDrop:vector(packetBytes) ETV
attr interpolationmode none
attr recordingmode vector(packetBytes)
attr source packetDropped
attr title "packet drops, packetBytes"
vector 55 WSN_Network.Sensor_Node[0].wlan[0].mac.dcf packetDropNotAddressedToUs:vector(packetBytes) ETV
attr interpolationmode none
attr recordingmode vector(packetBytes)
attr source packetDropReasonIsNotAddressedToUs(packetDropped)
attr title "packet drops: not addressed to us, packetBytes"
vector 56 WSN_Network.Sensor_Node[0].wlan[0].mac.dcf packetDropQueueOverflow:vector(packetBytes) ETV
attr interpolationmode none
attr recordingmode vector(packetBytes)
attr source packetDropReasonIsQueueOverflow(packetDropped)
attr title "packet drops: queue overflow, packetBytes"
vector 57 WSN_Network.Sensor_Node[0].wlan[0].mac.dcf packetDropRetryLimitReached:vector(packetBytes) ETV
attr interpolationmode none
attr recordingmode vector(packetBytes)
attr source packetDropReasonIsRetryLimitReached(packetDropped)
attr title "packet drops: retry limit reached, packetBytes"
vector 58 WSN_Network.Sensor_Node[0].wlan[0].mac.dcf frameSequenceActive:vector ETV
attr autoWarmupFilter false
attr interpolationmode sample-hold
attr recordingmode vector
attr source warmup(count(frameSequenceStarted)-count(frameSequenceFinished))
attr title "frame sequence active"
vector 59 WSN_Network.Sensor_Node[0].wlan[0].mac.dcf datarateSelected:vector ETV
attr interpolationmode none
attr recordingmode vector
attr title "datarates selected"
vector 60 WSN_Network.Sensor_Node[0].wlan[0].mac.rx nav:vector ETV
attr interpolationmode linear
attr recordingmode vector
attr source navChanged
attr title "network allocation vector"
vector 61 WSN_Network.Sensor_Node[0].wlan[0].mac packetSentToUpper:vector(packetBytes) ETV
attr interpolationmode none
attr recordingmode vector(packetBytes)
attr title "packets sent to upper layer, packetBytes"
vector 62 WSN_Network.Sensor_Node[0].wlan[0].mac packetSentToLower:vector(packetBytes) ETV
attr interpolationmode none
attr recordingmode vector(packetBytes)
attr title "packets sent to lower layer, packetBytes"
vector 63 WSN_Network.Sensor_Node[0].wlan[0].mac packetReceivedFromUpper:vector(packetBytes) ETV
attr interpolationmode none
attr recordingmode vector(packetBytes)
attr title "packets received from upper layer, packetBytes"
vector 64 WSN_Network.Sensor_Node[0].wlan[0].mac packetReceivedFromLower:vector(packetBytes) ETV
attr interpolationmode none
attr recordingmode vector(packetBytes)
attr title "packets received from lower layer, packetBytes"
vector 65 WSN_Network.Sensor_Node[0].wlan[0].mac packetDrop:vector(packetBytes) ETV
attr interpolationmode none
attr recordingmode vector(packetBytes)
attr source packetDropped
attr title "packet drops, packetBytes"
vector 66 WSN_Network.Sensor_Node[0].wlan[0].mac packetDropIncorrectlyReceived:vector(packetBytes) ETV
attr interpolationmode none
attr recordingmode vector(packetBytes)
attr source packetDropReasonIsIncorrectlyReceived(packetDropped)
attr title "packet drops: incorrectly received, packetBytes"
vector 67 WSN_Network.Sensor_Node[0].wlan[0].mac packetDropNotAddressedToUs:vector(packetBytes) ETV
attr interpolationmode none
attr recordingmode vector(packetBytes)
attr source packetDropReasonIsNotAddressedToUs(packetDropped)
attr title "packet drops: not addressed to us, packetBytes"
vector 68 WSN_Network.Sensor_Node[0].wlan[0].mac packetDropQueueOverflow:vector(packetBytes) ETV
attr interpolationmode none
attr recordingmode vector(packetBytes)
attr source packetDropReasonIsQueueOverflow(packetDropped)
attr title "packet drops: queue overflow, packetBytes"
vector 69 WSN_Network.Sensor_Node[0].wlan[0].mac packetDropRetryLimitReached:vector(packetBytes) ETV
attr interpolationmode none
attr recordingmode vector(packetBytes)
attr source packetDropReasonIsRetryLimitReached(packetDropped)
attr title "packet drops: retry limit reached, packetBytes"
vector 70 WSN_Network.Sensor_Node[0].wlan[0].mac packetDropDuplicateDetected:vector(packetBytes) ETV
attr interpolationmode none
attr recordingmode vector(packetBytes)
attr source packetDropReasonIsDuplicateDetected(packetDropped)
attr title "packet drops: duplicate detected, packetBytes"
vector 71 WSN_Network.Sensor_Node[0].wlan[0].mac packetDropOther:vector(packetBytes) ETV
attr interpolationmode none
attr recordingmode vector(packetBytes)
attr source packetDropReasonIsOther(packetDropped)
attr title "packet drops: other, packetBytes"
vector 72 WSN_Network.Sensor_Node[0].wlan[0].radio radioMode:vector ETV
attr interpolationmode sample-hold
attr recordingmode vector
attr source radioModeChanged
attr title "Radio mode"
vector 73 WSN_Network.Sensor_Node[0].wlan[0].radio receptionState:vector ETV
attr interpolationmode sample-hold
attr recordingmode vector
attr source receptionStateChanged
attr title "Radio reception state"
vector 74 WSN_Network.Sensor_Node[0].wlan[0].radio transmissionState:vector ETV
attr interpolationmode sample-hold
attr recordingmode vector
attr source transmissionStateChanged
attr title "Radio transmission state"
vector 75 WSN_Network.Sensor_Node[0].wlan[0].radio radioChannel:vector ETV
attr interpolationmode sample-hold
attr recordingmode vector
attr source radioChannelChanged
attr title "Radio channel"
vector 76 WSN_Network.Sensor_Node[0].wlan[0] packetDropInterfaceDown:vector(packetBytes) ETV
attr interpolationmode none
attr recordingmode vector(packetBytes)
attr source packetDropReasonIsInterfaceDown(packetDropped)
attr title "packet drops: interface down, packetBytes"
vector 77 WSN_Network.Sensor_Node[0].wlan[0] packetDropNoCarrier:vector(packetBytes) ETV
attr interpolationmode none
attr recordingmode vector(packetBytes)
attr source packetDropReasonIsNoCarrier(packetDropped)
attr title "packet drops: no carrier, packetBytes"
vector 78 WSN_Network.Sensor_Node[0].ipv4.ip packetDropAddressResolutionFailed:vector(packetBytes) ETV
attr interpolationmode none
attr recordingmode vector(packetBytes)
attr source packetDropReasonIsAddressResolutionFailed(packetDropped)
attr title "packet drop: address resolution failed, packetBytes"
vector 79 WSN_Network.Sensor_Node[0].ipv4.ip packetDropHopLimitReached:vector(packetBytes) ETV
attr interpolationmode none
attr recordingmode vector(packetBytes)
attr source packetDropReasonIsHopLimitReached(packetDropped)
attr title "packet drop: hop limit reached, packetBytes"
vector 80 WSN_Network.Sensor_Node[0].ipv4.ip packetDropForwardingDisabled:vector(packetBytes) ETV
attr interpolationmode none
attr recordingmode vector(packetBytes)
attr source packetDropReasonIsForwardingDisabled(packetDropped)
attr title "packet drop: forwarding disabled, packetBytes"
vector 81 WSN_Network.Sensor_Node[0].ipv4.ip packetDropNoInterfaceFound:vector(packetBytes) ETV
attr interpolationmode none
attr recordingmode vector(packetBytes)
attr source packetDropReasonIsNoInterfaceFound(packetDropped)
attr title "packet drop: no interface found, packetBytes"
vector 82 WSN_Network.Sensor_Node[0].ipv4.ip packetDropNoRouteFound:vector(packetBytes) ETV
attr interpolationmode none
attr recordingmode vector(packetBytes)
attr source packetDropReasonIsNoRouteFound(packetDropped)
attr title "packet drop: no route found, packetBytes"
vector 83 WSN_Network.Sensor_Node[0].ipv4.ip packetDropUndefined:vector(packetBytes) ETV
attr interpolationmode none
attr recordingmode vector(packetBytes)
attr source packetDropReasonIsUndefined(packetDropped)
attr title "packet drop: undefined, packetBytes"
vector 84 WSN_Network.Sensor_Node[0].ipv4.arp arpRequestSent:vector(packetBytes) ETV
attr recordingmode vector(packetBytes)
attr source arpRequestSent
attr title "ARP request sent, packetBytes"
vector 85 WSN_Network.Sensor_Node[0].ipv4.arp arpReplySent:vector(packetBytes) ETV
attr recordingmode vector(packetBytes)
attr source arpReplySent
attr title "ARP replies sent, packetBytes"
vector 86 WSN_Network.Sensor_Node[0].udp packetSent:vector(packetBytes) ETV
attr interpolationmode none
attr recordingmode vector(packetBytes)
attr source packetSent
attr title "packets sent, packetBytes"
vector 87 WSN_Network.Sensor_Node[0].udp packetReceived:vector(packetBytes) ETV
attr interpolationmode none
attr recordingmode vector(packetBytes)
attr source packetReceived
attr title "packets received, packetBytes"
vector 88 WSN_Network.Sensor_Node[0].udp passedUpPk:vector(count) ETV
attr interpolationmode none
attr recordingmode vector(count)
attr source packetSentToUpper
attr title "packets passed up, count"
vector 89 WSN_Network.Sensor_Node[0].udp droppedPkWrongPort:vector(count) ETV
attr interpolationmode none
attr recordingmode vector(count)
attr source packetDropReasonIsNoPortFound(packetDropped)
attr title "packets dropped (wrong port), count"
vector 90 WSN_Network.Sensor_Node[0].udp droppedPkBadChecksum:vector(count) ETV
attr interpolationmode none
attr recordingmode vector(count)
attr source packetDropReasonIsIncorrectlyReceived(packetDropped)
attr title "packets dropped (checksum error), count"
vector 91 WSN_Network.Sensor_Node[1].lo[0].lo rcvdPkFromHl:vector(packetBytes) ETV
attr interpolationmode none
attr recordingmode vector(packetBytes)
attr source packetReceivedFromUpper
attr title "packets received from higher layer, packetBytes"
vector 92 WSN_Network.Sensor_Node[1].lo[0].lo passedUpPk:vector(packetBytes) ETV
attr interpolationmode none
attr recordingmode vector(packetBytes)
attr source packetSentToUpper
attr title "packets passed to higher layer, packetBytes"
vector 93 WSN_Network.Sensor_Node[1].lo[0] packetDropInterfaceDown:vector(packetBytes) ETV
attr interpolationmode none
attr recordingmode vector(packetBytes)
attr source packetDropReasonIsInterfaceDown(packetDropped)
attr title "packet drops: interface down, packetBytes"
vector 94 WSN_Network.Sensor_Node[1].lo[0] packetDropNoCarrier:vector(packetBytes) ETV
attr interpolationmode none
attr recordingmode vector(packetBytes)
attr source packetDropReasonIsNoCarrier(packetDropped)
attr title "packet drops: no carrier, packetBytes"
vector 95 WSN_Network.Sensor_Node[1].wlan[0].mac.dcf.channelAccess.pendingQueue queueLength:vector ETV
attr autoWarmupFilter false
attr interpolationmode sample-hold
attr recordingmode vector
attr source "warmup(atomic(constant0(packetPushEnded) + count(packetPushStarted) - count(packetPulled) - count(packetRemoved) - count(packetDropped)))"
attr title "queue length"
attr unit pk
vector 96 WSN_Network.Sensor_Node[1].wlan[0].mac.dcf.channelAccess.pendingQueue queueBitLength:vector ETV
attr autoWarmupFilter false
attr interpolationmode sample-hold
attr recordingmode vector
attr source "warmup(atomic(constant0(packetPushEnded) + sum(packetLength(packetPushStarted)) - sum(packetLength(packetPulled)) - sum(packetLength(packetRemoved)) - sum(packetLength(packetDropped))))"
attr title "queue bit length"
attr unit b
vector 97 WSN_Network.Sensor_Node[1].wlan[0].mac.dcf.channelAccess.pendingQueue queueingTime:vector ETV
attr interpolationmode none
attr recordingmode vector
attr source queueingTime(packetPulled)
attr title "queueing times"
attr unit s
vector 98 WSN_Network.Sensor_Node[1].wlan[0].mac.dcf.channelAccess.pendingQueue incomingPacketLengths:vector ETV
attr interpolationmode none
attr recordingmode vector
attr source packetLength(packetPushStarted)
attr title "incoming packet lengths"
attr unit b
vector 99 WSN_Network.Sensor_Node[1].wlan[0].mac.dcf.channelAccess.pendingQueue incomingDataRate:vector ETV
attr interpolationmode linear
attr recordingmode vector
attr source throughput(packetPushStarted)
attr title "incoming datarate"
attr unit bps
vector 100 WSN_Network.Sensor_Node[1].wlan[0].mac.dcf.channelAccess.pendingQueue outgoingPacketLengths:vector ETV
attr interpolationmode none
attr recordingmode vector
attr source packetLength(packetPulled)
attr title "outgoing packet lengths"
attr unit b
vector 101 WSN_Network.Sensor_Node[1].wlan[0].mac.dcf.channelAccess.pendingQueue outgoingDataRate:vector ETV
attr interpolationmode linear
attr recordingmode vector
attr source throughput(packetPulled)
attr title "outgoing datarate"
attr unit bps
vector 102 WSN_Network.Sensor_Node[1].wlan[0].mac.dcf.channelAccess.pendingQueue droppedPacketLengthsQueueOverflow:vector ETV
attr interpolationmode none
attr recordingmode vector
attr source packetLength(packetDropReasonIsQueueOverflow(packetDropped))
attr title "dropped packet lengths: queue overflow"
attr unit b
vector 103 WSN_Network.Sensor_Node[1].wlan[0].mac.dcf.channelAccess.pendingQueue flowQueueingTime:vector ETV
attr interpolationmode none
attr recordingmode vector
attr source queueingTime(demuxFlow(packetPulled))
attr title "flow queueing times"
attr unit s
vector 104 WSN_Network.Sensor_Node[1].wlan[0].mac.dcf.channelAccess.pendingQueue flowIncomingDataRate:vector ETV
attr interpolationmode linear
attr recordingmode vector
attr source throughput(flowPacketLength(demuxFlow(packetPushStarted)))
attr title "flow specific incoming data rate"
attr unit bps
vector 105 WSN_Network.Sensor_Node[1].wlan[0].mac.dcf.channelAccess.pendingQueue flowOutgoingDataRate:vector ETV
attr interpolationmode linear
attr recordingmode vector
attr source throughput(flowPacketLength(demuxFlow(packetPulled)))
attr title "flow specific outgoing data rate"
attr unit bps
vector 106 WSN_Network.Sensor_Node[1].wlan[0].mac.dcf.channelAccess.inProgressFrames queueingTime:vector ETV
attr interpolationmode none
attr recordingmode vector
attr source queueingTime(packetDequeued)
attr title "queueing times"
vector 107 WSN_Network.Sensor_Node[1].wlan[0].mac.dcf.channelAccess.inProgressFrames queueLength:vector ETV
attr autoWarmupFilter false
attr interpolationmode sample-hold
attr recordingmode vector
attr source "warmup(count(packetEnqueued) - count(packetDequeued))"
attr title "queue length"
vector 108 WSN_Network.Sensor_Node[1].wlan[0].mac.dcf.channelAccess.contention backoffPeriodGenerated:vector ETV
attr interpolationmode none
attr recordingmode vector
attr title "backoff periods"
vector 109 WSN_Network.Sensor_Node[1].wlan[0].mac.dcf.channelAccess.contention backoffActive:vector ETV
attr autoWarmupFilter false
attr interpolationmode sample-hold
attr recordingmode vector
attr source warmup(count(backoffStarted)-count(backoffStopped))
attr title "backoff active"
vector 110 WSN_Network.Sensor_Node[1].wlan[0].mac.dcf.channelAccess.contention stateChanged:vector ETV
attr enum IDLE,DEFER,IFS_AND_BACKOFF
attr interpolationmode none
attr recordingmode vector
attr title "contention state changed"
attr type enum
vector 111 WSN_Network.Sensor_Node[1].wlan[0].mac.dcf.recipientMacDataService packetDropDuplicateDetected:vector(packetBytes) ETV
attr interpolationmode none
attr recordingmode vector(packetBytes)
attr source packetDropReasonIsDuplicateDetected(packetDropped)
attr title "packet drops: duplicate detected, packetBytes"
vector 112 WSN_Network.Sensor_Node[1].wlan[0].mac.dcf.recoveryProcedure contentionWindowChanged:vector ETV
attr interpolationmode sample-hold
attr recordingmode vector
attr title "contention window"
vector 113 WSN_Network.Sensor_Node[1].wlan[0].mac.dcf packetSentToPeer:vector(packetBytes) ETV
attr interpolationmode none
attr recordingmode vector(packetBytes)
attr title "packets sent, packetBytes"
vector 114 WSN_Network.Sensor_Node[1].wlan[0].mac.dcf packetSentToPeerUnicast:vector(packetBytes) ETV
attr interpolationmode none
attr recordingmode vector(packetBytes)
attr source ieee80211Unicast(packetSentToPeer)
attr title "packets sent: unicast, packetBytes"
vector 115 WSN_Network.Sensor_Node[1].wlan[0].mac.dcf packetSentToPeerMulticast:vector(packetBytes) ETV
attr interpolationmode none
attr recordingmode vector(packetBytes)
attr source ieee80211Multicast(packetSentToPeer)
attr title "packets sent: multicast, packetBytes"
vector 116 WSN_Network.Sensor_Node[1].wlan[0].mac.dcf packetSentToPeerBroadcast:vector(packetBytes) ETV
attr interpolationmode none
attr recordingmode vector(packetBytes)
attr source ieee80211Broadcast(packetSentToPeer)
attr title "packets sent: broadcast , packetBytes"
vector 117 WSN_Network.Sensor_Node[1].wlan[0].mac.dcf packetSentToPeerWithRetry:vector(packetBytes) ETV
attr interpolationmode none
attr recordingmode vector(packetBytes)
attr source ieee80211Retry(packetSentToPeer)
attr title "packets sent: with retry, packetBytes"
vector 118 WSN_Network.Sensor_Node[1].wlan[0].mac.dcf packetSentToPeerWithoutRetry:vector(packetBytes) ETV
attr interpolationmode none
attr recordingmode vector(packetBytes)
attr source ieee80211NotRetry(packetSentToPeer)
attr title "packets sent: without retry, packetBytes"
vector 119 WSN_Network.Sensor_Node[1].wlan[0].mac.dcf packetReceivedFromPeer:vector(packetBytes) ETV
attr interpolationmode none
attr recordingmode vector(packetBytes)
attr title "packets received, packetBytes"
vector 120 WSN_Network.Sensor_Node[1].wlan[0].mac.dcf packetReceivedFromPeerUnicast:vector(packetBytes) ETV
attr interpolationmode none
attr recordingmode vector(packetBytes)
attr source ieee80211Unicast(packetReceivedFromPeer)
attr title "packets received: unicast, packetBytes"
vector 121 WSN_Network.Sensor_Node[1].wlan[0].mac.dcf packetReceivedFromPeerMulticast:vector(packetBytes) ETV
attr interpolationmode none
attr recordingmode vector(packetBytes)
attr source ieee80211Multicast(packetReceivedFromPeer)
attr title "packets received: multicast, packetBytes"
vector 122 WSN_Network.Sensor_Node[1].wlan[0].mac.dcf packetReceivedFromPeerBroadcast:vector(packetBytes) ETV
attr interpolationmode none
attr recordingmode vector(packetBytes)
attr source ieee80211Broadcast(packetReceivedFromPeer)
attr title "packets received: broadcast, packetBytes"
vector 123 WSN_Network.Sensor_Node[1].wlan[0].mac.dcf packetReceivedFromPeerWithRetry:vector(packetBytes) ETV
attr interpolationmode none
attr recordingmode vector(packetBytes)
attr source ieee80211Retry(packetReceivedFromPeer)
attr title "packets received: with retry, packetBytes"
vector 124 WSN_Network.Sensor_Node[1].wlan[0].mac.dcf packetReceivedFromPeerWithoutRetry:vector(packetBytes) ETV
attr interpolationmode none
attr recordingmode vector(packetBytes)
attr source ieee80211NotRetry(packetReceivedFromPeer)
attr title "packets received: without retry, packetBytes"
vector 125 WSN_Network.Sensor_Node[1].wlan[0].mac.dcf packetDrop:vector(packetBytes) ETV
attr interpolationmode none
attr recordingmode vector(packetBytes)
attr source packetDropped
attr title "packet drops, packetBytes"
vector 126 WSN_Network.Sensor_Node[1].wlan[0].mac.dcf packetDropNotAddressedToUs:vector(packetBytes) ETV
attr interpolationmode none
attr recordingmode vector(packetBytes)
attr source packetDropReasonIsNotAddressedToUs(packetDropped)
attr title "packet drops: not addressed to us, packetBytes"
vector 127 WSN_Network.Sensor_Node[1].wlan[0].mac.dcf packetDropQueueOverflow:vector(packetBytes) ETV
attr interpolationmode none
attr recordingmode vector(packetBytes)
attr source packetDropReasonIsQueueOverflow(packetDropped)
attr title "packet drops: queue overflow, packetBytes"
vector 128 WSN_Network.Sensor_Node[1].wlan[0].mac.dcf packetDropRetryLimitReached:vector(packetBytes) ETV
attr interpolationmode none
attr recordingmode vector(packetBytes)
attr source packetDropReasonIsRetryLimitReached(packetDropped)
attr title "packet drops: retry limit reached, packetBytes"
vector 129 WSN_Network.Sensor_Node[1].wlan[0].mac.dcf frameSequenceActive:vector ETV
attr autoWarmupFilter false
attr interpolationmode sample-hold
attr recordingmode vector
attr source warmup(count(frameSequenceStarted)-count(frameSequenceFinished))
attr title "frame sequence active"
vector 130 WSN_Network.Sensor_Node[1].wlan[0].mac.dcf datarateSelected:vector ETV
attr interpolationmode none
attr recordingmode vector
attr title "datarates selected"
vector 131 WSN_Network.Sensor_Node[1].wlan[0].mac.rx nav:vector ETV
attr interpolationmode linear
attr recordingmode vector
attr source navChanged
attr title "network allocation vector"
vector 132 WSN_Network.Sensor_Node[1].wlan[0].mac packetSentToUpper:vector(packetBytes) ETV
attr interpolationmode none
attr recordingmode vector(packetBytes)
attr title "packets sent to upper layer, packetBytes"
vector 133 WSN_Network.Sensor_Node[1].wlan[0].mac packetSentToLower:vector(packetBytes) ETV
attr interpolationmode none
attr recordingmode vector(packetBytes)
attr title "packets sent to lower layer, packetBytes"
vector 134 WSN_Network.Sensor_Node[1].wlan[0].mac packetReceivedFromUpper:vector(packetBytes) ETV
attr interpolationmode none
attr recordingmode vector(packetBytes)
attr title "packets received from upper layer, packetBytes"
vector 135 WSN_Network.Sensor_Node[1].wlan[0].mac packetReceivedFromLower:vector(packetBytes) ETV
attr interpolationmode none
attr recordingmode vector(packetBytes)
attr title "packets received from lower layer, packetBytes"
vector 136 WSN_Network.Sensor_Node[1].wlan[0].mac packetDrop:vector(packetBytes) ETV
attr interpolationmode none
attr recordingmode vector(packetBytes)
attr source packetDropped
attr title "packet drops, packetBytes"
vector 137 WSN_Network.Sensor_Node[1].wlan[0].mac packetDropIncorrectlyReceived:vector(packetBytes) ETV
attr interpolationmode none
attr recordingmode vector(packetBytes)
attr source packetDropReasonIsIncorrectlyReceived(packetDropped)
attr title "packet drops: incorrectly received, packetBytes"
vector 138 WSN_Network.Sensor_Node[1].wlan[0].mac packetDropNotAddressedToUs:vector(packetBytes) ETV
attr interpolationmode none
attr recordingmode vector(packetBytes)
attr source packetDropReasonIsNotAddressedToUs(packetDropped)
attr title "packet drops: not addressed to us, packetBytes"
vector 139 WSN_Network.Sensor_Node[1].wlan[0].mac packetDropQueueOverflow:vector(packetBytes) ETV
attr interpolationmode none
attr recordingmode vector(packetBytes)
attr source packetDropReasonIsQueueOverflow(packetDropped)
attr title "packet drops: queue overflow, packetBytes"
vector 140 WSN_Network.Sensor_Node[1].wlan[0].mac packetDropRetryLimitReached:vector(packetBytes) ETV
attr interpolationmode none
attr recordingmode vector(packetBytes)
attr source packetDropReasonIsRetryLimitReached(packetDropped)
attr title "packet drops: retry limit reached, packetBytes"
vector 141 WSN_Network.Sensor_Node[1].wlan[0].mac packetDropDuplicateDetected:vector(packetBytes) ETV
attr interpolationmode none
attr recordingmode vector(packetBytes)
attr source packetDropReasonIsDuplicateDetected(packetDropped)
attr title "packet drops: duplicate detected, packetBytes"
vector 142 WSN_Network.Sensor_Node[1].wlan[0].mac packetDropOther:vector(packetBytes) ETV
attr interpolationmode none
attr recordingmode vector(packetBytes)
attr source packetDropReasonIsOther(packetDropped)
attr title "packet drops: other, packetBytes"
vector 143 WSN_Network.Sensor_Node[1].wlan[0].radio radioMode:vector ETV
attr interpolationmode sample-hold
attr recordingmode vector
attr source radioModeChanged
attr title "Radio mode"
vector 144 WSN_Network.Sensor_Node[1].wlan[0].radio receptionState:vector ETV
attr interpolationmode sample-hold
attr recordingmode vector
attr source receptionStateChanged
attr title "Radio reception state"
vector 145 WSN_Network.Sensor_Node[1].wlan[0].radio transmissionState:vector ETV
attr interpolationmode sample-hold
attr recordingmode vector
attr source transmissionStateChanged
attr title "Radio transmission state"
vector 146 WSN_Network.Sensor_Node[1].wlan[0].radio radioChannel:vector ETV
attr interpolationmode sample-hold
attr recordingmode vector
attr source radioChannelChanged
attr title "Radio channel"
vector 147 WSN_Network.Sensor_Node[1].wlan[0] packetDropInterfaceDown:vector(packetBytes) ETV
attr interpolationmode none
attr recordingmode vector(packetBytes)
attr source packetDropReasonIsInterfaceDown(packetDropped)
attr title "packet drops: interface down, packetBytes"
vector 148 WSN_Network.Sensor_Node[1].wlan[0] packetDropNoCarrier:vector(packetBytes) ETV
attr interpolationmode none
attr recordingmode vector(packetBytes)
attr source packetDropReasonIsNoCarrier(packetDropped)
attr title "packet drops: no carrier, packetBytes"
vector 149 WSN_Network.Sensor_Node[1].ipv4.ip packetDropAddressResolutionFailed:vector(packetBytes) ETV
attr interpolationmode none
attr recordingmode vector(packetBytes)
attr source packetDropReasonIsAddressResolutionFailed(packetDropped)
attr title "packet drop: address resolution failed, packetBytes"
vector 150 WSN_Network.Sensor_Node[1].ipv4.ip packetDropHopLimitReached:vector(packetBytes) ETV
attr interpolationmode none
attr recordingmode vector(packetBytes)
attr source packetDropReasonIsHopLimitReached(packetDropped)
attr title "packet drop: hop limit reached, packetBytes"
vector 151 WSN_Network.Sensor_Node[1].ipv4.ip packetDropForwardingDisabled:vector(packetBytes) ETV
attr interpolationmode none
attr recordingmode vector(packetBytes)
attr source packetDropReasonIsForwardingDisabled(packetDropped)
attr title "packet drop: forwarding disabled, packetBytes"
vector 152 WSN_Network.Sensor_Node[1].ipv4.ip packetDropNoInterfaceFound:vector(packetBytes) ETV
attr interpolationmode none
attr recordingmode vector(packetBytes)
attr source packetDropReasonIsNoInterfaceFound(packetDropped)
attr title "packet drop: no interface found, packetBytes"
vector 153 WSN_Network.Sensor_Node[1].ipv4.ip packetDropNoRouteFound:vector(packetBytes) ETV
attr interpolationmode none
attr recordingmode vector(packetBytes)
attr source packetDropReasonIsNoRouteFound(packetDropped)
attr title "packet drop: no route found, packetBytes"
vector 154 WSN_Network.Sensor_Node[1].ipv4.ip packetDropUndefined:vector(packetBytes) ETV
attr interpolationmode none
attr recordingmode vector(packetBytes)
attr source packetDropReasonIsUndefined(packetDropped)
attr title "packet drop: undefined, packetBytes"
vector 155 WSN_Network.Sensor_Node[1].ipv4.arp arpRequestSent:vector(packetBytes) ETV
attr recordingmode vector(packetBytes)
attr source arpRequestSent
attr title "ARP request sent, packetBytes"
vector 156 WSN_Network.Sensor_Node[1].ipv4.arp arpReplySent:vector(packetBytes) ETV
attr recordingmode vector(packetBytes)
attr source arpReplySent
attr title "ARP replies sent, packetBytes"
vector 157 WSN_Network.Sensor_Node[1].udp packetSent:vector(packetBytes) ETV
attr interpolationmode none
attr recordingmode vector(packetBytes)
attr source packetSent
attr title "packets sent, packetBytes"
vector 158 WSN_Network.Sensor_Node[1].udp packetReceived:vector(packetBytes) ETV
attr interpolationmode none
attr recordingmode vector(packetBytes)
attr source packetReceived
attr title "packets received, packetBytes"
vector 159 WSN_Network.Sensor_Node[1].udp passedUpPk:vector(count) ETV
attr interpolationmode none
attr recordingmode vector(count)
attr source packetSentToUpper
attr title "packets passed up, count"
vector 160 WSN_Network.Sensor_Node[1].udp droppedPkWrongPort:vector(count) ETV
attr interpolationmode none
attr recordingmode vector(count)
attr source packetDropReasonIsNoPortFound(packetDropped)
attr title "packets dropped (wrong port), count"
vector 161 WSN_Network.Sensor_Node[1].udp droppedPkBadChecksum:vector(count) ETV
attr interpolationmode none
attr recordingmode vector(count)
attr source packetDropReasonIsIncorrectlyReceived(packetDropped)
attr title "packets dropped (checksum error), count"
vector 162 WSN_Network.Sensor_Node[1].app[0] rtt:vector ETV
attr interpolationmode none
attr recordingmode vector
attr title "ping round-trip time"
attr unit s
vector 163 WSN_Network.Sensor_Node[1].app[0] numLost:vector ETV
attr interpolationmode none
attr recordingmode vector
attr title "pings lost"
vector 164 WSN_Network.Sensor_Node[1].app[0] numOutOfOrderArrivals:vector ETV
attr interpolationmode none
attr recordingmode vector
attr title "ping out-of-order arrivals"
vector 165 WSN_Network.Sensor_Node[1].app[0] pingTxSeq:vector ETV
attr interpolationmode none
attr recordingmode vector
attr title "ping tx seq"
vector 166 WSN_Network.Sensor_Node[1].app[0] pingRxSeq:vector ETV
attr interpolationmode none
attr recordingmode vector
attr title "ping rx seq"
vector 167 WSN_Network.Sensor_Node[1].app[1] rtt:vector ETV
attr interpolationmode none
attr recordingmode vector
attr title "ping round-trip time"
attr unit s
vector 168 WSN_Network.Sensor_Node[1].app[1] numLost:vector ETV
attr interpolationmode none
attr recordingmode vector
attr title "pings lost"
vector 169 WSN_Network.Sensor_Node[1].app[1] numOutOfOrderArrivals:vector ETV
attr interpolationmode none
attr recordingmode vector
attr title "ping out-of-order arrivals"
vector 170 WSN_Network.Sensor_Node[1].app[1] pingTxSeq:vector ETV
attr interpolationmode none
attr recordingmode vector
attr title "ping tx seq"
vector 171 WSN_Network.Sensor_Node[1].app[1] pingRxSeq:vector ETV
attr interpolationmode none
attr recordingmode vector
attr title "ping rx seq"
vector 172 WSN_Network.Sensor_Node[2].lo[0].lo rcvdPkFromHl:vector(packetBytes) ETV
attr interpolationmode none
attr recordingmode vector(packetBytes)
attr source packetReceivedFromUpper
attr title "packets received from higher layer, packetBytes"
vector 173 WSN_Network.Sensor_Node[2].lo[0].lo passedUpPk:vector(packetBytes) ETV
attr interpolationmode none
attr recordingmode vector(packetBytes)
attr source packetSentToUpper
attr title "packets passed to higher layer, packetBytes"
vector 174 WSN_Network.Sensor_Node[2].lo[0] packetDropInterfaceDown:vector(packetBytes) ETV
attr interpolationmode none
attr recordingmode vector(packetBytes)
attr source packetDropReasonIsInterfaceDown(packetDropped)
attr title "packet drops: interface down, packetBytes"
vector 175 WSN_Network.Sensor_Node[2].lo[0] packetDropNoCarrier:vector(packetBytes) ETV
attr interpolationmode none
attr recordingmode vector(packetBytes)
attr source packetDropReasonIsNoCarrier(packetDropped)
attr title "packet drops: no carrier, packetBytes"
vector 176 WSN_Network.Sensor_Node[2].wlan[0].mac.dcf.channelAccess.pendingQueue queueLength:vector ETV
attr autoWarmupFilter false
attr interpolationmode sample-hold
attr recordingmode vector
attr source "warmup(atomic(constant0(packetPushEnded) + count(packetPushStarted) - count(packetPulled) - count(packetRemoved) - count(packetDropped)))"
attr title "queue length"
attr unit pk
vector 177 WSN_Network.Sensor_Node[2].wlan[0].mac.dcf.channelAccess.pendingQueue queueBitLength:vector ETV
attr autoWarmupFilter false
attr interpolationmode sample-hold
attr recordingmode vector
attr source "warmup(atomic(constant0(packetPushEnded) + sum(packetLength(packetPushStarted)) - sum(packetLength(packetPulled)) - sum(packetLength(packetRemoved)) - sum(packetLength(packetDropped))))"
attr title "queue bit length"
attr unit b
vector 178 WSN_Network.Sensor_Node[2].wlan[0].mac.dcf.channelAccess.pendingQueue queueingTime:vector ETV
attr interpolationmode none
attr recordingmode vector
attr source queueingTime(packetPulled)
attr title "queueing times"
attr unit s
vector 179 WSN_Network.Sensor_Node[2].wlan[0].mac.dcf.channelAccess.pendingQueue incomingPacketLengths:vector ETV
attr interpolationmode none
attr recordingmode vector
attr source packetLength(packetPushStarted)
attr title "incoming packet lengths"
attr unit b
vector 180 WSN_Network.Sensor_Node[2].wlan[0].mac.dcf.channelAccess.pendingQueue incomingDataRate:vector ETV
attr interpolationmode linear
attr recordingmode vector
attr source throughput(packetPushStarted)
attr title "incoming datarate"
attr unit bps
vector 181 WSN_Network.Sensor_Node[2].wlan[0].mac.dcf.channelAccess.pendingQueue outgoingPacketLengths:vector ETV
attr interpolationmode none
attr recordingmode vector
attr source packetLength(packetPulled)
attr title "outgoing packet lengths"
attr unit b
vector 182 WSN_Network.Sensor_Node[2].wlan[0].mac.dcf.channelAccess.pendingQueue outgoingDataRate:vector ETV
attr interpolationmode linear
attr recordingmode vector
attr source throughput(packetPulled)
attr title "outgoing datarate"
attr unit bps
vector 183 WSN_Network.Sensor_Node[2].wlan[0].mac.dcf.channelAccess.pendingQueue droppedPacketLengthsQueueOverflow:vector ETV
attr interpolationmode none
attr recordingmode vector
attr source packetLength(packetDropReasonIsQueueOverflow(packetDropped))
attr title "dropped packet lengths: queue overflow"
attr unit b
vector 184 WSN_Network.Sensor_Node[2].wlan[0].mac.dcf.channelAccess.pendingQueue flowQueueingTime:vector ETV
attr interpolationmode none
attr recordingmode vector
attr source queueingTime(demuxFlow(packetPulled))
attr title "flow queueing times"
attr unit s
vector 185 WSN_Network.Sensor_Node[2].wlan[0].mac.dcf.channelAccess.pendingQueue flowIncomingDataRate:vector ETV
attr interpolationmode linear
attr recordingmode vector
attr source throughput(flowPacketLength(demuxFlow(packetPushStarted)))
attr title "flow specific incoming data rate"
attr unit bps
vector 186 WSN_Network.Sensor_Node[2].wlan[0].mac.dcf.channelAccess.pendingQueue flowOutgoingDataRate:vector ETV
attr interpolationmode linear
attr recordingmode vector
attr source throughput(flowPacketLength(demuxFlow(packetPulled)))
attr title "flow specific outgoing data rate"
attr unit bps
vector 187 WSN_Network.Sensor_Node[2].wlan[0].mac.dcf.channelAccess.inProgressFrames queueingTime:vector ETV
attr interpolationmode none
attr recordingmode vector
attr source queueingTime(packetDequeued)
attr title "queueing times"
vector 188 WSN_Network.Sensor_Node[2].wlan[0].mac.dcf.channelAccess.inProgressFrames queueLength:vector ETV
attr autoWarmupFilter false
attr interpolationmode sample-hold
attr recordingmode vector
attr source "warmup(count(packetEnqueued) - count(packetDequeued))"
attr title "queue length"
vector 189 WSN_Network.Sensor_Node[2].wlan[0].mac.dcf.channelAccess.contention backoffPeriodGenerated:vector ETV
attr interpolationmode none
attr recordingmode vector
attr title "backoff periods"
vector 190 WSN_Network.Sensor_Node[2].wlan[0].mac.dcf.channelAccess.contention backoffActive:vector ETV
attr autoWarmupFilter false
attr interpolationmode sample-hold
attr recordingmode vector
attr source warmup(count(backoffStarted)-count(backoffStopped))
attr title "backoff active"
vector 191 WSN_Network.Sensor_Node[2].wlan[0].mac.dcf.channelAccess.contention stateChanged:vector ETV
attr enum IDLE,DEFER,IFS_AND_BACKOFF
attr interpolationmode none
attr recordingmode vector
attr title "contention state changed"
attr type enum
vector 192 WSN_Network.Sensor_Node[2].wlan[0].mac.dcf.recipientMacDataService packetDropDuplicateDetected:vector(packetBytes) ETV
attr interpolationmode none
attr recordingmode vector(packetBytes)
attr source packetDropReasonIsDuplicateDetected(packetDropped)
attr title "packet drops: duplicate detected, packetBytes"
vector 193 WSN_Network.Sensor_Node[2].wlan[0].mac.dcf.recoveryProcedure contentionWindowChanged:vector ETV
attr interpolationmode sample-hold
attr recordingmode vector
attr title "contention window"
vector 194 WSN_Network.Sensor_Node[2].wlan[0].mac.dcf packetSentToPeer:vector(packetBytes) ETV
attr interpolationmode none
attr recordingmode vector(packetBytes)
attr title "packets sent, packetBytes"
vector 195 WSN_Network.Sensor_Node[2].wlan[0].mac.dcf packetSentToPeerUnicast:vector(packetBytes) ETV
attr interpolationmode none
attr recordingmode vector(packetBytes)
attr source ieee80211Unicast(packetSentToPeer)
attr title "packets sent: unicast, packetBytes"
vector 196 WSN_Network.Sensor_Node[2].wlan[0].mac.dcf packetSentToPeerMulticast:vector(packetBytes) ETV
attr interpolationmode none
attr recordingmode vector(packetBytes)
attr source ieee80211Multicast(packetSentToPeer)
attr title "packets sent: multicast, packetBytes"
vector 197 WSN_Network.Sensor_Node[2].wlan[0].mac.dcf packetSentToPeerBroadcast:vector(packetBytes) ETV
attr interpolationmode none
attr recordingmode vector(packetBytes)
attr source ieee80211Broadcast(packetSentToPeer)
attr title "packets sent: broadcast , packetBytes"
vector 198 WSN_Network.Sensor_Node[2].wlan[0].mac.dcf packetSentToPeerWithRetry:vector(packetBytes) ETV
attr interpolationmode none
attr recordingmode vector(packetBytes)
attr source ieee80211Retry(packetSentToPeer)
attr title "packets sent: with retry, packetBytes"
vector 199 WSN_Network.Sensor_Node[2].wlan[0].mac.dcf packetSentToPeerWithoutRetry:vector(packetBytes) ETV
attr interpolationmode none
attr recordingmode vector(packetBytes)
attr source ieee80211NotRetry(packetSentToPeer)
attr title "packets sent: without retry, packetBytes"
vector 200 WSN_Network.Sensor_Node[2].wlan[0].mac.dcf packetReceivedFromPeer:vector(packetBytes) ETV
attr interpolationmode none
attr recordingmode vector(packetBytes)
attr title "packets received, packetBytes"
vector 201 WSN_Network.Sensor_Node[2].wlan[0].mac.dcf packetReceivedFromPeerUnicast:vector(packetBytes) ETV
attr interpolationmode none
attr recordingmode vector(packetBytes)
attr source ieee80211Unicast(packetReceivedFromPeer)
attr title "packets received: unicast, packetBytes"
vector 202 WSN_Network.Sensor_Node[2].wlan[0].mac.dcf packetReceivedFromPeerMulticast:vector(packetBytes) ETV
attr interpolationmode none
attr recordingmode vector(packetBytes)
attr source ieee80211Multicast(packetReceivedFromPeer)
attr title "packets received: multicast, packetBytes"
vector 203 WSN_Network.Sensor_Node[2].wlan[0].mac.dcf packetReceivedFromPeerBroadcast:vector(packetBytes) ETV
attr interpolationmode none
attr recordingmode vector(packetBytes)
attr source ieee80211Broadcast(packetReceivedFromPeer)
attr title "packets received: broadcast, packetBytes"
vector 204 WSN_Network.Sensor_Node[2].wlan[0].mac.dcf packetReceivedFromPeerWithRetry:vector(packetBytes) ETV
attr interpolationmode none
attr recordingmode vector(packetBytes)
attr source ieee80211Retry(packetReceivedFromPeer)
attr title "packets received: with retry, packetBytes"
vector 205 WSN_Network.Sensor_Node[2].wlan[0].mac.dcf packetReceivedFromPeerWithoutRetry:vector(packetBytes) ETV
attr interpolationmode none
attr recordingmode vector(packetBytes)
attr source ieee80211NotRetry(packetReceivedFromPeer)
attr title "packets received: without retry, packetBytes"
vector 206 WSN_Network.Sensor_Node[2].wlan[0].mac.dcf packetDrop:vector(packetBytes) ETV
attr interpolationmode none
attr recordingmode vector(packetBytes)
attr source packetDropped
attr title "packet drops, packetBytes"
vector 207 WSN_Network.Sensor_Node[2].wlan[0].mac.dcf packetDropNotAddressedToUs:vector(packetBytes) ETV
attr interpolationmode none
attr recordingmode vector(packetBytes)
attr source packetDropReasonIsNotAddressedToUs(packetDropped)
attr title "packet drops: not addressed to us, packetBytes"
vector 208 WSN_Network.Sensor_Node[2].wlan[0].mac.dcf packetDropQueueOverflow:vector(packetBytes) ETV
attr interpolationmode none
attr recordingmode vector(packetBytes)
attr source packetDropReasonIsQueueOverflow(packetDropped)
attr title "packet drops: queue overflow, packetBytes"
vector 209 WSN_Network.Sensor_Node[2].wlan[0].mac.dcf packetDropRetryLimitReached:vector(packetBytes) ETV
attr interpolationmode none
attr recordingmode vector(packetBytes)
attr source packetDropReasonIsRetryLimitReached(packetDropped)
attr title "packet drops: retry limit reached, packetBytes"
vector 210 WSN_Network.Sensor_Node[2].wlan[0].mac.dcf frameSequenceActive:vector ETV
attr autoWarmupFilter false
attr interpolationmode sample-hold
attr recordingmode vector
attr source warmup(count(frameSequenceStarted)-count(frameSequenceFinished))
attr title "frame sequence active"
vector 211 WSN_Network.Sensor_Node[2].wlan[0].mac.dcf datarateSelected:vector ETV
attr interpolationmode none
attr recordingmode vector
attr title "datarates selected"
vector 212 WSN_Network.Sensor_Node[2].wlan[0].mac.rx nav:vector ETV
attr interpolationmode linear
attr recordingmode vector
attr source navChanged
attr title "network allocation vector"
vector 213 WSN_Network.Sensor_Node[2].wlan[0].mac packetSentToUpper:vector(packetBytes) ETV
attr interpolationmode none
attr recordingmode vector(packetBytes)
attr title "packets sent to upper layer, packetBytes"
vector 214 WSN_Network.Sensor_Node[2].wlan[0].mac packetSentToLower:vector(packetBytes) ETV
attr interpolationmode none
attr recordingmode vector(packetBytes)
attr title "packets sent to lower layer, packetBytes"
vector 215 WSN_Network.Sensor_Node[2].wlan[0].mac packetReceivedFromUpper:vector(packetBytes) ETV
attr interpolationmode none
attr recordingmode vector(packetBytes)
attr title "packets received from upper layer, packetBytes"
vector 216 WSN_Network.Sensor_Node[2].wlan[0].mac packetReceivedFromLower:vector(packetBytes) ETV
attr interpolationmode none
attr recordingmode vector(packetBytes)
attr title "packets received from lower layer, packetBytes"
vector 217 WSN_Network.Sensor_Node[2].wlan[0].mac packetDrop:vector(packetBytes) ETV
attr interpolationmode none
attr recordingmode vector(packetBytes)
attr source packetDropped
attr title "packet drops, packetBytes"
vector 218 WSN_Network.Sensor_Node[2].wlan[0].mac packetDropIncorrectlyReceived:vector(packetBytes) ETV
attr interpolationmode none
attr recordingmode vector(packetBytes)
attr source packetDropReasonIsIncorrectlyReceived(packetDropped)
attr title "packet drops: incorrectly received, packetBytes"
vector 219 WSN_Network.Sensor_Node[2].wlan[0].mac packetDropNotAddressedToUs:vector(packetBytes) ETV
attr interpolationmode none
attr recordingmode vector(packetBytes)
attr source packetDropReasonIsNotAddressedToUs(packetDropped)
attr title "packet drops: not addressed to us, packetBytes"
vector 220 WSN_Network.Sensor_Node[2].wlan[0].mac packetDropQueueOverflow:vector(packetBytes) ETV
attr interpolationmode none
attr recordingmode vector(packetBytes)
attr source packetDropReasonIsQueueOverflow(packetDropped)
attr title "packet drops: queue overflow, packetBytes"
vector 221 WSN_Network.Sensor_Node[2].wlan[0].mac packetDropRetryLimitReached:vector(packetBytes) ETV
attr interpolationmode none
attr recordingmode vector(packetBytes)
attr source packetDropReasonIsRetryLimitReached(packetDropped)
attr title "packet drops: retry limit reached, packetBytes"
vector 222 WSN_Network.Sensor_Node[2].wlan[0].mac packetDropDuplicateDetected:vector(packetBytes) ETV
attr interpolationmode none
attr recordingmode vector(packetBytes)
attr source packetDropReasonIsDuplicateDetected(packetDropped)
attr title "packet drops: duplicate detected, packetBytes"
vector 223 WSN_Network.Sensor_Node[2].wlan[0].mac packetDropOther:vector(packetBytes) ETV
attr interpolationmode none
attr recordingmode vector(packetBytes)
attr source packetDropReasonIsOther(packetDropped)
attr title "packet drops: other, packetBytes"
vector 224 WSN_Network.Sensor_Node[2].wlan[0].radio radioMode:vector ETV
attr interpolationmode sample-hold
attr recordingmode vector
attr source radioModeChanged
attr title "Radio mode"
vector 225 WSN_Network.Sensor_Node[2].wlan[0].radio receptionState:vector ETV
attr interpolationmode sample-hold
attr recordingmode vector
attr source receptionStateChanged
attr title "Radio reception state"
vector 226 WSN_Network.Sensor_Node[2].wlan[0].radio transmissionState:vector ETV
attr interpolationmode sample-hold
attr recordingmode vector
attr source transmissionStateChanged
attr title "Radio transmission state"
vector 227 WSN_Network.Sensor_Node[2].wlan[0].radio radioChannel:vector ETV
attr interpolationmode sample-hold
attr recordingmode vector
attr source radioChannelChanged
attr title "Radio channel"
vector 228 WSN_Network.Sensor_Node[2].wlan[0] packetDropInterfaceDown:vector(packetBytes) ETV
attr interpolationmode none
attr recordingmode vector(packetBytes)
attr source packetDropReasonIsInterfaceDown(packetDropped)
attr title "packet drops: interface down, packetBytes"
vector 229 WSN_Network.Sensor_Node[2].wlan[0] packetDropNoCarrier:vector(packetBytes) ETV
attr interpolationmode none
attr recordingmode vector(packetBytes)
attr source packetDropReasonIsNoCarrier(packetDropped)
attr title "packet drops: no carrier, packetBytes"
vector 230 WSN_Network.Sensor_Node[2].ipv4.ip packetDropAddressResolutionFailed:vector(packetBytes) ETV
attr interpolationmode none
attr recordingmode vector(packetBytes)
attr source packetDropReasonIsAddressResolutionFailed(packetDropped)
attr title "packet drop: address resolution failed, packetBytes"
vector 231 WSN_Network.Sensor_Node[2].ipv4.ip packetDropHopLimitReached:vector(packetBytes) ETV
attr interpolationmode none
attr recordingmode vector(packetBytes)
attr source packetDropReasonIsHopLimitReached(packetDropped)
attr title "packet drop: hop limit reached, packetBytes"
vector 232 WSN_Network.Sensor_Node[2].ipv4.ip packetDropForwardingDisabled:vector(packetBytes) ETV
attr interpolationmode none
attr recordingmode vector(packetBytes)
attr source packetDropReasonIsForwardingDisabled(packetDropped)
attr title "packet drop: forwarding disabled, packetBytes"
vector 233 WSN_Network.Sensor_Node[2].ipv4.ip packetDropNoInterfaceFound:vector(packetBytes) ETV
attr interpolationmode none
attr recordingmode vector(packetBytes)
attr source packetDropReasonIsNoInterfaceFound(packetDropped)
attr title "packet drop: no interface found, packetBytes"
vector 234 WSN_Network.Sensor_Node[2].ipv4.ip packetDropNoRouteFound:vector(packetBytes) ETV
attr interpolationmode none
attr recordingmode vector(packetBytes)
attr source packetDropReasonIsNoRouteFound(packetDropped)
attr title "packet drop: no route found, packetBytes"
vector 235 WSN_Network.Sensor_Node[2].ipv4.ip packetDropUndefined:vector(packetBytes) ETV
attr interpolationmode none
attr recordingmode vector(packetBytes)
attr source packetDropReasonIsUndefined(packetDropped)
attr title "packet drop: undefined, packetBytes"
vector 236 WSN_Network.Sensor_Node[2].ipv4.arp arpRequestSent:vector(packetBytes) ETV
attr recordingmode vector(packetBytes)
attr source arpRequestSent
attr title "ARP request sent, packetBytes"
vector 237 WSN_Network.Sensor_Node[2].ipv4.arp arpReplySent:vector(packetBytes) ETV
attr recordingmode vector(packetBytes)
attr source arpReplySent
attr title "ARP replies sent, packetBytes"
vector 238 WSN_Network.Sensor_Node[2].udp packetSent:vector(packetBytes) ETV
attr interpolationmode none
attr recordingmode vector(packetBytes)
attr source packetSent
attr title "packets sent, packetBytes"
vector 239 WSN_Network.Sensor_Node[2].udp packetReceived:vector(packetBytes) ETV
attr interpolationmode none
attr recordingmode vector(packetBytes)
attr source packetReceived
attr title "packets received, packetBytes"
vector 240 WSN_Network.Sensor_Node[2].udp passedUpPk:vector(count) ETV
attr interpolationmode none
attr recordingmode vector(count)
attr source packetSentToUpper
attr title "packets passed up, count"
vector 241 WSN_Network.Sensor_Node[2].udp droppedPkWrongPort:vector(count) ETV
attr interpolationmode none
attr recordingmode vector(count)
attr source packetDropReasonIsNoPortFound(packetDropped)
attr title "packets dropped (wrong port), count"
vector 242 WSN_Network.Sensor_Node[2].udp droppedPkBadChecksum:vector(count) ETV
attr interpolationmode none
attr recordingmode vector(count)
attr source packetDropReasonIsIncorrectlyReceived(packetDropped)
attr title "packets dropped (checksum error), count"
vector 243 WSN_Network.Sensor_Node[2].app[0] rtt:vector ETV
attr interpolationmode none
attr recordingmode vector
attr title "ping round-trip time"
attr unit s
vector 244 WSN_Network.Sensor_Node[2].app[0] numLost:vector ETV
attr interpolationmode none
attr recordingmode vector
attr title "pings lost"
vector 245 WSN_Network.Sensor_Node[2].app[0] numOutOfOrderArrivals:vector ETV
attr interpolationmode none
attr recordingmode vector
attr title "ping out-of-order arrivals"
vector 246 WSN_Network.Sensor_Node[2].app[0] pingTxSeq:vector ETV
attr interpolationmode none
attr recordingmode vector
attr title "ping tx seq"
vector 247 WSN_Network.Sensor_Node[2].app[0] pingRxSeq:vector ETV
attr interpolationmode none
attr recordingmode vector
attr title "ping rx seq"
vector 248 WSN_Network.Sensor_Node[2].app[1] rtt:vector ETV
attr interpolationmode none
attr recordingmode vector
attr title "ping round-trip time"
attr unit s
vector 249 WSN_Network.Sensor_Node[2].app[1] numLost:vector ETV
attr interpolationmode none
attr recordingmode vector
attr title "pings lost"
vector 250 WSN_Network.Sensor_Node[2].app[1] numOutOfOrderArrivals:vector ETV
attr interpolationmode none
attr recordingmode vector
attr title "ping out-of-order arrivals"
vector 251 WSN_Network.Sensor_Node[2].app[1] pingTxSeq:vector ETV
attr interpolationmode none
attr recordingmode vector
attr title "ping tx seq"
vector 252 WSN_Network.Sensor_Node[2].app[1] pingRxSeq:vector ETV
attr interpolationmode none
attr recordingmode vector
attr title "ping rx seq"
vector 253 WSN_Network.Sensor_Node[3].lo[0].lo rcvdPkFromHl:vector(packetBytes) ETV
attr interpolationmode none
attr recordingmode vector(packetBytes)
attr source packetReceivedFromUpper
attr title "packets received from higher layer, packetBytes"
vector 254 WSN_Network.Sensor_Node[3].lo[0].lo passedUpPk:vector(packetBytes) ETV
attr interpolationmode none
attr recordingmode vector(packetBytes)
attr source packetSentToUpper
attr title "packets passed to higher layer, packetBytes"
vector 255 WSN_Network.Sensor_Node[3].lo[0] packetDropInterfaceDown:vector(packetBytes) ETV
attr interpolationmode none
attr recordingmode vector(packetBytes)
attr source packetDropReasonIsInterfaceDown(packetDropped)
attr title "packet drops: interface down, packetBytes"
vector 256 WSN_Network.Sensor_Node[3].lo[0] packetDropNoCarrier:vector(packetBytes) ETV
attr interpolationmode none
attr recordingmode vector(packetBytes)
attr source packetDropReasonIsNoCarrier(packetDropped)
attr title "packet drops: no carrier, packetBytes"
vector 257 WSN_Network.Sensor_Node[3].wlan[0].mac.dcf.channelAccess.pendingQueue queueLength:vector ETV
attr autoWarmupFilter false
attr interpolationmode sample-hold
attr recordingmode vector
attr source "warmup(atomic(constant0(packetPushEnded) + count(packetPushStarted) - count(packetPulled) - count(packetRemoved) - count(packetDropped)))"
attr title "queue length"
attr unit pk
vector 258 WSN_Network.Sensor_Node[3].wlan[0].mac.dcf.channelAccess.pendingQueue queueBitLength:vector ETV
attr autoWarmupFilter false
attr interpolationmode sample-hold
attr recordingmode vector
attr source "warmup(atomic(constant0(packetPushEnded) + sum(packetLength(packetPushStarted)) - sum(packetLength(packetPulled)) - sum(packetLength(packetRemoved)) - sum(packetLength(packetDropped))))"
attr title "queue bit length"
attr unit b
vector 259 WSN_Network.Sensor_Node[3].wlan[0].mac.dcf.channelAccess.pendingQueue queueingTime:vector ETV
attr interpolationmode none
attr recordingmode vector
attr source queueingTime(packetPulled)
attr title "queueing times"
attr unit s
vector 260 WSN_Network.Sensor_Node[3].wlan[0].mac.dcf.channelAccess.pendingQueue incomingPacketLengths:vector ETV
attr interpolationmode none
attr recordingmode vector
attr source packetLength(packetPushStarted)
attr title "incoming packet lengths"
attr unit b
vector 261 WSN_Network.Sensor_Node[3].wlan[0].mac.dcf.channelAccess.pendingQueue incomingDataRate:vector ETV
attr interpolationmode linear
attr recordingmode vector
attr source throughput(packetPushStarted)
attr title "incoming datarate"
attr unit bps
vector 262 WSN_Network.Sensor_Node[3].wlan[0].mac.dcf.channelAccess.pendingQueue outgoingPacketLengths:vector ETV
attr interpolationmode none
attr recordingmode vector
attr source packetLength(packetPulled)
attr title "outgoing packet lengths"
attr unit b
vector 263 WSN_Network.Sensor_Node[3].wlan[0].mac.dcf.channelAccess.pendingQueue outgoingDataRate:vector ETV
attr interpolationmode linear
attr recordingmode vector
attr source throughput(packetPulled)
attr title "outgoing datarate"
attr unit bps
vector 264 WSN_Network.Sensor_Node[3].wlan[0].mac.dcf.channelAccess.pendingQueue droppedPacketLengthsQueueOverflow:vector ETV
attr interpolationmode none
attr recordingmode vector
attr source packetLength(packetDropReasonIsQueueOverflow(packetDropped))
attr title "dropped packet lengths: queue overflow"
attr unit b
vector 265 WSN_Network.Sensor_Node[3].wlan[0].mac.dcf.channelAccess.pendingQueue flowQueueingTime:vector ETV
attr interpolationmode none
attr recordingmode vector
attr source queueingTime(demuxFlow(packetPulled))
attr title "flow queueing times"
attr unit s
vector 266 WSN_Network.Sensor_Node[3].wlan[0].mac.dcf.channelAccess.pendingQueue flowIncomingDataRate:vector ETV
attr interpolationmode linear
attr recordingmode vector
attr source throughput(flowPacketLength(demuxFlow(packetPushStarted)))
attr title "flow specific incoming data rate"
attr unit bps
vector 267 WSN_Network.Sensor_Node[3].wlan[0].mac.dcf.channelAccess.pendingQueue flowOutgoingDataRate:vector ETV
attr interpolationmode linear
attr recordingmode vector
attr source throughput(flowPacketLength(demuxFlow(packetPulled)))
attr title "flow specific outgoing data rate"
attr unit bps
vector 268 WSN_Network.Sensor_Node[3].wlan[0].mac.dcf.channelAccess.inProgressFrames queueingTime:vector ETV
attr interpolationmode none
attr recordingmode vector
attr source queueingTime(packetDequeued)
attr title "queueing times"
vector 269 WSN_Network.Sensor_Node[3].wlan[0].mac.dcf.channelAccess.inProgressFrames queueLength:vector ETV
attr autoWarmupFilter false
attr interpolationmode sample-hold
attr recordingmode vector
attr source "warmup(count(packetEnqueued) - count(packetDequeued))"
attr title "queue length"
vector 270 WSN_Network.Sensor_Node[3].wlan[0].mac.dcf.channelAccess.contention backoffPeriodGenerated:vector ETV
attr interpolationmode none
attr recordingmode vector
attr title "backoff periods"
vector 271 WSN_Network.Sensor_Node[3].wlan[0].mac.dcf.channelAccess.contention backoffActive:vector ETV
attr autoWarmupFilter false
attr interpolationmode sample-hold
attr recordingmode vector
attr source warmup(count(backoffStarted)-count(backoffStopped))
attr title "backoff active"
vector 272 WSN_Network.Sensor_Node[3].wlan[0].mac.dcf.channelAccess.contention stateChanged:vector ETV
attr enum IDLE,DEFER,IFS_AND_BACKOFF
attr interpolationmode none
attr recordingmode vector
attr title "contention state changed"
attr type enum
vector 273 WSN_Network.Sensor_Node[3].wlan[0].mac.dcf.recipientMacDataService packetDropDuplicateDetected:vector(packetBytes) ETV
attr interpolationmode none
attr recordingmode vector(packetBytes)
attr source packetDropReasonIsDuplicateDetected(packetDropped)
attr title "packet drops: duplicate detected, packetBytes"
vector 274 WSN_Network.Sensor_Node[3].wlan[0].mac.dcf.recoveryProcedure contentionWindowChanged:vector ETV
attr interpolationmode sample-hold
attr recordingmode vector
attr title "contention window"
vector 275 WSN_Network.Sensor_Node[3].wlan[0].mac.dcf packetSentToPeer:vector(packetBytes) ETV
attr interpolationmode none
attr recordingmode vector(packetBytes)
attr title "packets sent, packetBytes"
vector 276 WSN_Network.Sensor_Node[3].wlan[0].mac.dcf packetSentToPeerUnicast:vector(packetBytes) ETV
attr interpolationmode none
attr recordingmode vector(packetBytes)
attr source ieee80211Unicast(packetSentToPeer)
attr title "packets sent: unicast, packetBytes"
vector 277 WSN_Network.Sensor_Node[3].wlan[0].mac.dcf packetSentToPeerMulticast:vector(packetBytes) ETV
attr interpolationmode none
attr recordingmode vector(packetBytes)
attr source ieee80211Multicast(packetSentToPeer)
attr title "packets sent: multicast, packetBytes"
vector 278 WSN_Network.Sensor_Node[3].wlan[0].mac.dcf packetSentToPeerBroadcast:vector(packetBytes) ETV
attr interpolationmode none
attr recordingmode vector(packetBytes)
attr source ieee80211Broadcast(packetSentToPeer)
attr title "packets sent: broadcast , packetBytes"
vector 279 WSN_Network.Sensor_Node[3].wlan[0].mac.dcf packetSentToPeerWithRetry:vector(packetBytes) ETV
attr interpolationmode none
attr recordingmode vector(packetBytes)
attr source ieee80211Retry(packetSentToPeer)
attr title "packets sent: with retry, packetBytes"
vector 280 WSN_Network.Sensor_Node[3].wlan[0].mac.dcf packetSentToPeerWithoutRetry:vector(packetBytes) ETV
attr interpolationmode none
attr recordingmode vector(packetBytes)
attr source ieee80211NotRetry(packetSentToPeer)
attr title "packets sent: without retry, packetBytes"
vector 281 WSN_Network.Sensor_Node[3].wlan[0].mac.dcf packetReceivedFromPeer:vector(packetBytes) ETV
attr interpolationmode none
attr recordingmode vector(packetBytes)
attr title "packets received, packetBytes"
vector 282 WSN_Network.Sensor_Node[3].wlan[0].mac.dcf packetReceivedFromPeerUnicast:vector(packetBytes) ETV
attr interpolationmode none
attr recordingmode vector(packetBytes)
attr source ieee80211Unicast(packetReceivedFromPeer)
attr title "packets received: unicast, packetBytes"
vector 283 WSN_Network.Sensor_Node[3].wlan[0].mac.dcf packetReceivedFromPeerMulticast:vector(packetBytes) ETV
attr interpolationmode none
attr recordingmode vector(packetBytes)
attr source ieee80211Multicast(packetReceivedFromPeer)
attr title "packets received: multicast, packetBytes"
vector 284 WSN_Network.Sensor_Node[3].wlan[0].mac.dcf packetReceivedFromPeerBroadcast:vector(packetBytes) ETV
attr interpolationmode none
attr recordingmode vector(packetBytes)
attr source ieee80211Broadcast(packetReceivedFromPeer)
attr title "packets received: broadcast, packetBytes"
vector 285 WSN_Network.Sensor_Node[3].wlan[0].mac.dcf packetReceivedFromPeerWithRetry:vector(packetBytes) ETV
attr interpolationmode none
attr recordingmode vector(packetBytes)
attr source ieee80211Retry(packetReceivedFromPeer)
attr title "packets received: with retry, packetBytes"
vector 286 WSN_Network.Sensor_Node[3].wlan[0].mac.dcf packetReceivedFromPeerWithoutRetry:vector(packetBytes) ETV
attr interpolationmode none
attr recordingmode vector(packetBytes)
attr source ieee80211NotRetry(packetReceivedFromPeer)
attr title "packets received: without retry, packetBytes"
vector 287 WSN_Network.Sensor_Node[3].wlan[0].mac.dcf packetDrop:vector(packetBytes) ETV
attr interpolationmode none
attr recordingmode vector(packetBytes)
attr source packetDropped
attr title "packet drops, packetBytes"
vector 288 WSN_Network.Sensor_Node[3].wlan[0].mac.dcf packetDropNotAddressedToUs:vector(packetBytes) ETV
attr interpolationmode none
attr recordingmode vector(packetBytes)
attr source packetDropReasonIsNotAddressedToUs(packetDropped)
attr title "packet drops: not addressed to us, packetBytes"
vector 289 WSN_Network.Sensor_Node[3].wlan[0].mac.dcf packetDropQueueOverflow:vector(packetBytes) ETV
attr interpolationmode none
attr recordingmode vector(packetBytes)
attr source packetDropReasonIsQueueOverflow(packetDropped)
attr title "packet drops: queue overflow, packetBytes"
vector 290 WSN_Network.Sensor_Node[3].wlan[0].mac.dcf packetDropRetryLimitReached:vector(packetBytes) ETV
attr interpolationmode none
attr recordingmode vector(packetBytes)
attr source packetDropReasonIsRetryLimitReached(packetDropped)
attr title "packet drops: retry limit reached, packetBytes"
vector 291 WSN_Network.Sensor_Node[3].wlan[0].mac.dcf frameSequenceActive:vector ETV
attr autoWarmupFilter false
attr interpolationmode sample-hold
attr recordingmode vector
attr source warmup(count(frameSequenceStarted)-count(frameSequenceFinished))
attr title "frame sequence active"
vector 292 WSN_Network.Sensor_Node[3].wlan[0].mac.dcf datarateSelected:vector ETV
attr interpolationmode none
attr recordingmode vector
attr title "datarates selected"
vector 293 WSN_Network.Sensor_Node[3].wlan[0].mac.rx nav:vector ETV
attr interpolationmode linear
attr recordingmode vector
attr source navChanged
attr title "network allocation vector"
vector 294 WSN_Network.Sensor_Node[3].wlan[0].mac packetSentToUpper:vector(packetBytes) ETV
attr interpolationmode none
attr recordingmode vector(packetBytes)
attr title "packets sent to upper layer, packetBytes"
vector 295 WSN_Network.Sensor_Node[3].wlan[0].mac packetSentToLower:vector(packetBytes) ETV
attr interpolationmode none
attr recordingmode vector(packetBytes)
attr title "packets sent to lower layer, packetBytes"
vector 296 WSN_Network.Sensor_Node[3].wlan[0].mac packetReceivedFromUpper:vector(packetBytes) ETV
attr interpolationmode none
attr recordingmode vector(packetBytes)
attr title "packets received from upper layer, packetBytes"
vector 297 WSN_Network.Sensor_Node[3].wlan[0].mac packetReceivedFromLower:vector(packetBytes) ETV
attr interpolationmode none
attr recordingmode vector(packetBytes)
attr title "packets received from lower layer, packetBytes"
vector 298 WSN_Network.Sensor_Node[3].wlan[0].mac packetDrop:vector(packetBytes) ETV
attr interpolationmode none
attr recordingmode vector(packetBytes)
attr source packetDropped
attr title "packet drops, packetBytes"
vector 299 WSN_Network.Sensor_Node[3].wlan[0].mac packetDropIncorrectlyReceived:vector(packetBytes) ETV
attr interpolationmode none
attr recordingmode vector(packetBytes)
attr source packetDropReasonIsIncorrectlyReceived(packetDropped)
attr title "packet drops: incorrectly received, packetBytes"
vector 300 WSN_Network.Sensor_Node[3].wlan[0].mac packetDropNotAddressedToUs:vector(packetBytes) ETV
attr interpolationmode none
attr recordingmode vector(packetBytes)
attr source packetDropReasonIsNotAddressedToUs(packetDropped)
attr title "packet drops: not addressed to us, packetBytes"
vector 301 WSN_Network.Sensor_Node[3].wlan[0].mac packetDropQueueOverflow:vector(packetBytes) ETV
attr interpolationmode none
attr recordingmode vector(packetBytes)
attr source packetDropReasonIsQueueOverflow(packetDropped)
attr title "packet drops: queue overflow, packetBytes"
vector 302 WSN_Network.Sensor_Node[3].wlan[0].mac packetDropRetryLimitReached:vector(packetBytes) ETV
attr interpolationmode none
attr recordingmode vector(packetBytes)
attr source packetDropReasonIsRetryLimitReached(packetDropped)
attr title "packet drops: retry limit reached, packetBytes"
[...]
990	2959	1.2	0
990	2959	1.3	0
990	2959	1.4	0
990	2959	1.5	0
990	2959	1.6	0
990	2959	1.7	0
990	2959	1.8	0
990	2959	1.9	0
992	2959	0.1	0
992	2959	0.2	0
992	2959	0.3	0
992	2959	0.4	0
992	2959	0.5	0
992	2959	0.6	0
992	2959	0.7	0
992	2959	0.8	0
992	2959	0.9	0
992	2959	1	0
992	2959	1.1	0
992	2959	1.2	0
992	2959	1.3	0
992	2959	1.4	0
992	2959	1.5	0
992	2959	1.6	0
992	2959	1.7	0
992	2959	1.8	0
992	2959	1.9	0
1071	2959	0.1	0
1071	2959	0.2	0
1071	2959	0.3	0
1071	2959	0.4	0
1071	2959	0.5	0
1071	2959	0.6	0
1071	2959	0.7	0
1071	2959	0.8	0
1071	2959	0.9	0
1071	2959	1	0
1071	2959	1.1	0
1071	2959	1.2	0
1071	2959	1.3	0
1071	2959	1.4	0
1071	2959	1.5	0
1071	2959	1.6	0
1071	2959	1.7	0
1071	2959	1.8	0
1071	2959	1.9	0
1073	2959	0.1	0
1073	2959	0.2	0
1073	2959	0.3	0
1073	2959	0.4	0
1073	2959	0.5	0
1073	2959	0.6	0
1073	2959	0.7	0
1073	2959	0.8	0
1073	2959	0.9	0
1073	2959	1	0
1073	2959	1.1	0
1073	2959	1.2	0
1073	2959	1.3	0
1073	2959	1.4	0
1073	2959	1.5	0
1073	2959	1.6	0
1073	2959	1.7	0
1073	2959	1.8	0
1073	2959	1.9	0
1152	2959	1.3	5120
1152	2959	1.4	0
1152	2959	1.5	0
1152	2959	1.6	0
1152	2959	1.7	0
1152	2959	1.8	0
1152	2959	1.9	0
1154	2959	1.3	5120
1154	2959	1.4	0
1154	2959	1.5	0
1154	2959	1.6	0
1154	2959	1.7	0
1154	2959	1.8	0
1154	2959	1.9	0
1233	2959	1.9	14720
1235	2959	1.9	14720
1314	2959	0.1	0
1314	2959	0.2	0
1314	2959	0.3	0
1314	2959	0.4	0
1314	2959	0.5	0
1314	2959	0.6	0
1314	2959	0.7	0
1314	2959	0.8	0
1314	2959	0.9	0
1314	2959	1	0
1314	2959	1.1	0
1314	2959	1.2	0
1314	2959	1.3	0
1314	2959	1.4	0
1314	2959	1.5	0
1314	2959	1.6	0
1314	2959	1.7	0
1314	2959	1.8	0
1314	2959	1.9	0
1316	2959	0.1	0
1316	2959	0.2	0
1316	2959	0.3	0
1316	2959	0.4	0
1316	2959	0.5	0
1316	2959	0.6	0
1316	2959	0.7	0
1316	2959	0.8	0
1316	2959	0.9	0
1316	2959	1	0
1316	2959	1.1	0
1316	2959	1.2	0
1316	2959	1.3	0
1316	2959	1.4	0
1316	2959	1.5	0
1316	2959	1.6	0
1316	2959	1.7	0
1316	2959	1.8	0
1316	2959	1.9	0
1395	2959	0.1	0
1395	2959	0.2	0
1395	2959	0.3	0
1395	2959	0.4	0
1395	2959	0.5	0
1395	2959	0.6	0
1395	2959	0.7	0
1395	2959	0.8	0
1395	2959	0.9	0
1395	2959	1	0
1395	2959	1.1	0
1395	2959	1.2	0
1395	2959	1.3	0
1395	2959	1.4	0
1395	2959	1.5	0
1395	2959	1.6	0
1395	2959	1.7	0
1395	2959	1.8	0
1395	2959	1.9	0
1397	2959	0.1	0
1397	2959	0.2	0
1397	2959	0.3	0
1397	2959	0.4	0
1397	2959	0.5	0
1397	2959	0.6	0
1397	2959	0.7	0
1397	2959	0.8	0
1397	2959	0.9	0
1397	2959	1	0
1397	2959	1.1	0
1397	2959	1.2	0
1397	2959	1.3	0
1397	2959	1.4	0
1397	2959	1.5	0
1397	2959	1.6	0
1397	2959	1.7	0
1397	2959	1.8	0
1397	2959	1.9	0
1476	2959	1.7	5120
1476	2959	1.8	0
1476	2959	1.9	0
1478	2959	1.7	5120
1478	2959	1.8	0
1478	2959	1.9	0
1557	2959	0.1	0
1557	2959	0.2	0
1557	2959	0.3	0
1557	2959	0.4	0
1557	2959	0.5	0
1557	2959	0.6	0
1557	2959	0.7	0
1557	2959	0.8	0
1557	2959	0.9	0
1557	2959	1	0
1557	2959	1.1	0
1557	2959	1.2	0
1557	2959	1.3	0
1557	2959	1.4	0
1557	2959	1.5	0
1557	2959	1.6	0
1557	2959	1.7	0
1557	2959	1.8	0
1557	2959	1.9	0
1559	2959	0.1	0
1559	2959	0.2	0
1559	2959	0.3	0
1559	2959	0.4	0
1559	2959	0.5	0
1559	2959	0.6	0
1559	2959	0.7	0
1559	2959	0.8	0
1559	2959	0.9	0
1559	2959	1	0
1559	2959	1.1	0
1559	2959	1.2	0
1559	2959	1.3	0
1559	2959	1.4	0
1559	2959	1.5	0
1559	2959	1.6	0
1559	2959	1.7	0
1559	2959	1.8	0
1559	2959	1.9	0
1638	2959	1.5	5120
1638	2959	1.6	0
1638	2959	1.7	0
1638	2959	1.8	0
1638	2959	1.9	0
1640	2959	1.5	5120
1640	2959	1.6	0
1640	2959	1.7	0
1640	2959	1.8	0
1640	2959	1.9	0
1719	2959	1.8	5120
1719	2959	1.9	0
1721	2959	1.8	5120
1721	2959	1.9	0
1800	2959	1.4	5120
1800	2959	1.5	0
1800	2959	1.6	0
1800	2959	1.7	0
1800	2959	1.8	0
1800	2959	1.9	0
1802	2959	1.4	5120
1802	2959	1.5	0
1802	2959	1.6	0
1802	2959	1.7	0
1802	2959	1.8	0
1802	2959	1.9	0
1881	2959	0.1	0
1881	2959	0.2	0
1881	2959	0.3	0
1881	2959	0.4	0
1881	2959	0.5	0
1881	2959	0.6	0
1881	2959	0.7	0
1881	2959	0.8	0
1881	2959	0.9	0
1881	2959	1	0
1881	2959	1.1	0
1881	2959	1.2	0
1881	2959	1.3	0
1881	2959	1.4	0
1881	2959	1.5	0
1881	2959	1.6	0
1881	2959	1.7	0
1881	2959	1.8	0
1881	2959	1.9	0
1883	2959	0.1	0
1883	2959	0.2	0
1883	2959	0.3	0
1883	2959	0.4	0
1883	2959	0.5	0
1883	2959	0.6	0
1883	2959	0.7	0
1883	2959	0.8	0
1883	2959	0.9	0
1883	2959	1	0
1883	2959	1.1	0
1883	2959	1.2	0
1883	2959	1.3	0
1883	2959	1.4	0
1883	2959	1.5	0
1883	2959	1.6	0
1883	2959	1.7	0
1883	2959	1.8	0
1883	2959	1.9	0
1962	2959	0.1	0
1962	2959	0.2	0
1962	2959	0.3	0
1962	2959	0.4	0
1962	2959	0.5	0
1962	2959	0.6	0
1962	2959	0.7	0
1962	2959	0.8	0
1962	2959	0.9	0
1962	2959	1	0
1962	2959	1.1	0
1962	2959	1.2	0
1962	2959	1.3	0
1962	2959	1.4	0
1962	2959	1.5	0
1962	2959	1.6	0
1962	2959	1.7	0
1962	2959	1.8	0
1962	2959	1.9	0
1964	2959	0.1	0
1964	2959	0.2	0
1964	2959	0.3	0
1964	2959	0.4	0
1964	2959	0.5	0
1964	2959	0.6	0
1964	2959	0.7	0
1964	2959	0.8	0
1964	2959	0.9	0
1964	2959	1	0
1964	2959	1.1	0
1964	2959	1.2	0
1964	2959	1.3	0
1964	2959	1.4	0
1964	2959	1.5	0
1964	2959	1.6	0
1964	2959	1.7	0
1964	2959	1.8	0
1964	2959	1.9	0
2043	2959	0.1	0
2043	2959	0.2	0
2043	2959	0.3	0
2043	2959	0.4	0
2043	2959	0.5	0
2043	2959	0.6	0
2043	2959	0.7	0
2043	2959	0.8	0
2043	2959	0.9	0
2043	2959	1	0
2043	2959	1.1	0
2043	2959	1.2	0
2043	2959	1.3	0
2043	2959	1.4	0
2043	2959	1.5	0
2043	2959	1.6	0
2043	2959	1.7	0
2043	2959	1.8	0
2043	2959	1.9	0
2045	2959	0.1	0
2045	2959	0.2	0
2045	2959	0.3	0
2045	2959	0.4	0
2045	2959	0.5	0
2045	2959	0.6	0
2045	2959	0.7	0
2045	2959	0.8	0
2045	2959	0.9	0
2045	2959	1	0
2045	2959	1.1	0
2045	2959	1.2	0
2045	2959	1.3	0
2045	2959	1.4	0
2045	2959	1.5	0
2045	2959	1.6	0
2045	2959	1.7	0
2045	2959	1.8	0
2045	2959	1.9	0
2124	2959	1.5	5120
2124	2959	1.6	0
2124	2959	1.7	0
2124	2959	1.8	0
2124	2959	1.9	0
2126	2959	1.5	5120
2126	2959	1.6	0
2126	2959	1.7	0
2126	2959	1.8	0
2126	2959	1.9	0
2205	2959	1.3	5120
2205	2959	1.4	0
2205	2959	1.5	0
2205	2959	1.6	0
2205	2959	1.7	0
2205	2959	1.8	0
2205	2959	1.9	0
2207	2959	1.3	5120
2207	2959	1.4	0
2207	2959	1.5	0
2207	2959	1.6	0
2207	2959	1.7	0
2207	2959	1.8	0
2207	2959	1.9	0
2286	2959	0.1	0
2286	2959	0.2	0
2286	2959	0.3	0
2286	2959	0.4	0
2286	2959	0.5	0
2286	2959	0.6	0
2286	2959	0.7	0
2286	2959	0.8	0
2286	2959	0.9	0
2286	2959	1	0
2286	2959	1.1	0
2286	2959	1.2	0
2286	2959	1.3	0
2286	2959	1.4	0
2286	2959	1.5	0
2286	2959	1.6	0
2286	2959	1.7	0
2286	2959	1.8	0
2286	2959	1.9	0
2288	2959	0.1	0
2288	2959	0.2	0
2288	2959	0.3	0
2288	2959	0.4	0
2288	2959	0.5	0
2288	2959	0.6	0
2288	2959	0.7	0
2288	2959	0.8	0
2288	2959	0.9	0
2288	2959	1	0
2288	2959	1.1	0
2288	2959	1.2	0
2288	2959	1.3	0
2288	2959	1.4	0
2288	2959	1.5	0
2288	2959	1.6	0
2288	2959	1.7	0
2288	2959	1.8	0
2288	2959	1.9	0
2367	2959	0.1	0
2367	2959	0.2	0
2367	2959	0.3	0
2367	2959	0.4	0
2367	2959	0.5	0
2367	2959	0.6	0
2367	2959	0.7	0
2367	2959	0.8	0
2367	2959	0.9	0
2367	2959	1	0
2367	2959	1.1	0
2367	2959	1.2	0
2367	2959	1.3	0
2367	2959	1.4	0
2367	2959	1.5	0
2367	2959	1.6	0
2367	2959	1.7	0
2367	2959	1.8	0
2367	2959	1.9	0
2369	2959	0.1	0
2369	2959	0.2	0
2369	2959	0.3	0
2369	2959	0.4	0
2369	2959	0.5	0
2369	2959	0.6	0
2369	2959	0.7	0
2369	2959	0.8	0
2369	2959	0.9	0
2369	2959	1	0
2369	2959	1.1	0
2369	2959	1.2	0
2369	2959	1.3	0
2369	2959	1.4	0
2369	2959	1.5	0
2369	2959	1.6	0
2369	2959	1.7	0
2369	2959	1.8	0
2369	2959	1.9	0
2448	2959	0.1	0
2448	2959	0.2	0
2448	2959	0.3	0
2448	2959	0.4	0
2448	2959	0.5	0
2448	2959	0.6	0
2448	2959	0.7	0
2448	2959	0.8	0
2448	2959	0.9	0
2448	2959	1	0
2448	2959	1.1	0
2448	2959	1.2	0
2448	2959	1.3	0
2448	2959	1.4	0
2448	2959	1.5	0
2448	2959	1.6	0
2448	2959	1.7	0
2448	2959	1.8	0
2448	2959	1.9	0
2450	2959	0.1	0
2450	2959	0.2	0
2450	2959	0.3	0
2450	2959	0.4	0
2450	2959	0.5	0
2450	2959	0.6	0
2450	2959	0.7	0
2450	2959	0.8	0
2450	2959	0.9	0
2450	2959	1	0
2450	2959	1.1	0
2450	2959	1.2	0
2450	2959	1.3	0
2450	2959	1.4	0
2450	2959	1.5	0
2450	2959	1.6	0
2450	2959	1.7	0
2450	2959	1.8	0
2450	2959	1.9	0
2529	2959	0.1	0
2529	2959	0.2	0
2529	2959	0.3	0
2529	2959	0.4	0
2529	2959	0.5	0
2529	2959	0.6	0
2529	2959	0.7	0
2529	2959	0.8	0
2529	2959	0.9	0
2529	2959	1	0
2529	2959	1.1	0
2529	2959	1.2	0
2529	2959	1.3	0
2529	2959	1.4	0
2529	2959	1.5	0
2529	2959	1.6	0
2529	2959	1.7	0
2529	2959	1.8	0
2529	2959	1.9	0
2531	2959	0.1	0
2531	2959	0.2	0
2531	2959	0.3	0
2531	2959	0.4	0
2531	2959	0.5	0
2531	2959	0.6	0
2531	2959	0.7	0
2531	2959	0.8	0
2531	2959	0.9	0
2531	2959	1	0
2531	2959	1.1	0
2531	2959	1.2	0
2531	2959	1.3	0
2531	2959	1.4	0
2531	2959	1.5	0
2531	2959	1.6	0
2531	2959	1.7	0
2531	2959	1.8	0
2531	2959	1.9	0
2610	2959	1.1	5120
2610	2959	1.2	0
2610	2959	1.3	0
2610	2959	1.4	0
2610	2959	1.5	0
2610	2959	1.6	0
2610	2959	1.7	0
2610	2959	1.8	0
2610	2959	1.9	0
2612	2959	1.1	5120
2612	2959	1.2	0
2612	2959	1.3	0
2612	2959	1.4	0
2612	2959	1.5	0
2612	2959	1.6	0
2612	2959	1.7	0
2612	2959	1.8	0
2612	2959	1.9	0
2691	2959	0.1	0
2691	2959	0.2	0
2691	2959	0.3	0
2691	2959	0.4	0
2691	2959	0.5	0
2691	2959	0.6	0
2691	2959	0.7	0
2691	2959	0.8	0
2691	2959	0.9	0
2691	2959	1	0
2691	2959	1.1	0
2691	2959	1.2	0
2691	2959	1.3	0
2691	2959	1.4	0
2691	2959	1.5	0
2691	2959	1.6	0
2691	2959	1.7	0
2691	2959	1.8	0
2691	2959	1.9	0
2693	2959	0.1	0
2693	2959	0.2	0
2693	2959	0.3	0
2693	2959	0.4	0
2693	2959	0.5	0
2693	2959	0.6	0
2693	2959	0.7	0
2693	2959	0.8	0
2693	2959	0.9	0
2693	2959	1	0
2693	2959	1.1	0
2693	2959	1.2	0
2693	2959	1.3	0
2693	2959	1.4	0
2693	2959	1.5	0
2693	2959	1.6	0
2693	2959	1.7	0
2693	2959	1.8	0
2693	2959	1.9	0
2772	2959	0.1	0
2772	2959	0.2	0
2772	2959	0.3	0
2772	2959	0.4	0
2772	2959	0.5	0
2772	2959	0.6	0
2772	2959	0.7	0
2772	2959	0.8	0
2772	2959	0.9	0
2772	2959	1	0
2772	2959	1.1	0
2772	2959	1.2	0
2772	2959	1.3	0
2772	2959	1.4	0
2772	2959	1.5	0
2772	2959	1.6	0
2772	2959	1.7	0
2772	2959	1.8	0
2772	2959	1.9	0
2774	2959	0.1	0
2774	2959	0.2	0
2774	2959	0.3	0
2774	2959	0.4	0
2774	2959	0.5	0
2774	2959	0.6	0
2774	2959	0.7	0
2774	2959	0.8	0
2774	2959	0.9	0
2774	2959	1	0
2774	2959	1.1	0
2774	2959	1.2	0
2774	2959	1.3	0
2774	2959	1.4	0
2774	2959	1.5	0
2774	2959	1.6	0
2774	2959	1.7	0
2774	2959	1.8	0
2774	2959	1.9	0
2853	2959	0.1	0
2853	2959	0.2	0
2853	2959	0.3	0
2853	2959	0.4	0
2853	2959	0.5	0
2853	2959	0.6	0
2853	2959	0.7	0
2853	2959	0.8	0
2853	2959	0.9	0
2853	2959	1	0
2853	2959	1.1	0
2853	2959	1.2	0
2853	2959	1.3	0
2853	2959	1.4	0
2853	2959	1.5	0
2853	2959	1.6	0
2853	2959	1.7	0
2853	2959	1.8	0
2853	2959	1.9	0
2855	2959	0.1	0
2855	2959	0.2	0
2855	2959	0.3	0
2855	2959	0.4	0
2855	2959	0.5	0
2855	2959	0.6	0
2855	2959	0.7	0
2855	2959	0.8	0
2855	2959	0.9	0
2855	2959	1	0
2855	2959	1.1	0
2855	2959	1.2	0
2855	2959	1.3	0
2855	2959	1.4	0
2855	2959	1.5	0
2855	2959	1.6	0
2855	2959	1.7	0
2855	2959	1.8	0
2855	2959	1.9	0
2934	2959	0.1	0
2934	2959	0.2	0
2934	2959	0.3	0
2934	2959	0.4	0
2934	2959	0.5	0
2934	2959	0.6	0
2934	2959	0.7	0
2934	2959	0.8	0
2934	2959	0.9	0
2934	2959	1	0
2934	2959	1.1	0
2934	2959	1.2	0
2934	2959	1.3	0
2934	2959	1.4	0
2934	2959	1.5	0
2934	2959	1.6	0
2934	2959	1.7	0
2934	2959	1.8	0
2934	2959	1.9	0
2936	2959	0.1	0
2936	2959	0.2	0
2936	2959	0.3	0
2936	2959	0.4	0
2936	2959	0.5	0
2936	2959	0.6	0
2936	2959	0.7	0
2936	2959	0.8	0
2936	2959	0.9	0
2936	2959	1	0
2936	2959	1.1	0
2936	2959	1.2	0
2936	2959	1.3	0
2936	2959	1.4	0
2936	2959	1.5	0
2936	2959	1.6	0
2936	2959	1.7	0
2936	2959	1.8	0
2936	2959	1.9	0
3015	2959	0.1	0
3015	2959	0.2	0
3015	2959	0.3	0
3015	2959	0.4	0
3015	2959	0.5	0
3015	2959	0.6	0
3015	2959	0.7	0
3015	2959	0.8	0
3015	2959	0.9	0
3015	2959	1	0
3015	2959	1.1	0
3015	2959	1.2	0
3015	2959	1.3	0
3015	2959	1.4	0
3015	2959	1.5	0
3015	2959	1.6	0
3015	2959	1.7	0
3015	2959	1.8	0
3015	2959	1.9	0
3017	2959	0.1	0
3017	2959	0.2	0
3017	2959	0.3	0
3017	2959	0.4	0
3017	2959	0.5	0
3017	2959	0.6	0
3017	2959	0.7	0
3017	2959	0.8	0
3017	2959	0.9	0
3017	2959	1	0
3017	2959	1.1	0
3017	2959	1.2	0
3017	2959	1.3	0
3017	2959	1.4	0
3017	2959	1.5	0
3017	2959	1.6	0
3017	2959	1.7	0
3017	2959	1.8	0
3017	2959	1.9	0
3096	2959	0.1	0
3096	2959	0.2	0
3096	2959	0.3	0
3096	2959	0.4	0
3096	2959	0.5	0
3096	2959	0.6	0
3096	2959	0.7	0
3096	2959	0.8	0
3096	2959	0.9	0
3096	2959	1	0
3096	2959	1.1	0
3096	2959	1.2	0
3096	2959	1.3	0
3096	2959	1.4	0
3096	2959	1.5	0
3096	2959	1.6	0
3096	2959	1.7	0
3096	2959	1.8	0
3096	2959	1.9	0
3098	2959	0.1	0
3098	2959	0.2	0
3098	2959	0.3	0
3098	2959	0.4	0
3098	2959	0.5	0
3098	2959	0.6	0
3098	2959	0.7	0
3098	2959	0.8	0
3098	2959	0.9	0
3098	2959	1	0
3098	2959	1.1	0
3098	2959	1.2	0
3098	2959	1.3	0
3098	2959	1.4	0
3098	2959	1.5	0
3098	2959	1.6	0
3098	2959	1.7	0
3098	2959	1.8	0
3098	2959	1.9	0
3177	2959	0.1	0
3177	2959	0.2	0
3177	2959	0.3	0
3177	2959	0.4	0
3177	2959	0.5	0
3177	2959	0.6	0
3177	2959	0.7	0
3177	2959	0.8	0
3177	2959	0.9	0
3177	2959	1	0
3177	2959	1.1	0
3177	2959	1.2	0
3177	2959	1.3	0
3177	2959	1.4	0
3177	2959	1.5	0
3177	2959	1.6	0
3177	2959	1.7	0
3177	2959	1.8	0
3177	2959	1.9	0
3179	2959	0.1	0
3179	2959	0.2	0
3179	2959	0.3	0
3179	2959	0.4	0
3179	2959	0.5	0
3179	2959	0.6	0
3179	2959	0.7	0
3179	2959	0.8	0
3179	2959	0.9	0
3179	2959	1	0
3179	2959	1.1	0
3179	2959	1.2	0
3179	2959	1.3	0
3179	2959	1.4	0
3179	2959	1.5	0
3179	2959	1.6	0
3179	2959	1.7	0
3179	2959	1.8	0
3179	2959	1.9	0
3258	2959	0.1	0
3258	2959	0.2	0
3258	2959	0.3	0
3258	2959	0.4	0
3258	2959	0.5	0
3258	2959	0.6	0
3258	2959	0.7	0
3258	2959	0.8	0
3258	2959	0.9	0
3258	2959	1	0
3258	2959	1.1	0
3258	2959	1.2	0
3258	2959	1.3	0
3258	2959	1.4	0
3258	2959	1.5	0
3258	2959	1.6	0
3258	2959	1.7	0
3258	2959	1.8	0
3258	2959	1.9	0
3260	2959	0.1	0
3260	2959	0.2	0
3260	2959	0.3	0
3260	2959	0.4	0
3260	2959	0.5	0
3260	2959	0.6	0
3260	2959	0.7	0
3260	2959	0.8	0
3260	2959	0.9	0
3260	2959	1	0
3260	2959	1.1	0
3260	2959	1.2	0
3260	2959	1.3	0
3260	2959	1.4	0
3260	2959	1.5	0
3260	2959	1.6	0
3260	2959	1.7	0
3260	2959	1.8	0
3260	2959	1.9	0
3339	2959	0.1	0
3339	2959	0.2	0
3339	2959	0.3	0
3339	2959	0.4	0
3339	2959	0.5	0
3339	2959	0.6	0
3339	2959	0.7	0
3339	2959	0.8	0
3339	2959	0.9	0
3339	2959	1	0
3339	2959	1.1	0
3339	2959	1.2	0
3339	2959	1.3	0
3339	2959	1.4	0
3339	2959	1.5	0
3339	2959	1.6	0
3339	2959	1.7	0
3339	2959	1.8	0
3339	2959	1.9	0
3341	2959	0.1	0
3341	2959	0.2	0
3341	2959	0.3	0
3341	2959	0.4	0
3341	2959	0.5	0
3341	2959	0.6	0
3341	2959	0.7	0
3341	2959	0.8	0
3341	2959	0.9	0
3341	2959	1	0
3341	2959	1.1	0
3341	2959	1.2	0
3341	2959	1.3	0
3341	2959	1.4	0
3341	2959	1.5	0
3341	2959	1.6	0
3341	2959	1.7	0
3341	2959	1.8	0
3341	2959	1.9	0
3420	2959	0.1	0
3420	2959	0.2	0
3420	2959	0.3	0
3420	2959	0.4	0
3420	2959	0.5	0
3420	2959	0.6	0
3420	2959	0.7	0
3420	2959	0.8	0
3420	2959	0.9	0
3420	2959	1	0
3420	2959	1.1	0
3420	2959	1.2	0
3420	2959	1.3	0
3420	2959	1.4	0
3420	2959	1.5	0
3420	2959	1.6	0
3420	2959	1.7	0
3420	2959	1.8	0
3420	2959	1.9	0
3422	2959	0.1	0
3422	2959	0.2	0
3422	2959	0.3	0
3422	2959	0.4	0
3422	2959	0.5	0
3422	2959	0.6	0
3422	2959	0.7	0
3422	2959	0.8	0
3422	2959	0.9	0
3422	2959	1	0
3422	2959	1.1	0
3422	2959	1.2	0
3422	2959	1.3	0
3422	2959	1.4	0
3422	2959	1.5	0
3422	2959	1.6	0
3422	2959	1.7	0
3422	2959	1.8	0
3422	2959	1.9	0
3501	2959	0.1	0
3501	2959	0.2	0
3501	2959	0.3	0
3501	2959	0.4	0
3501	2959	0.5	0
3501	2959	0.6	0
3501	2959	0.7	0
3501	2959	0.8	0
3501	2959	0.9	0
3501	2959	1	0
3501	2959	1.1	0
3501	2959	1.2	0
3501	2959	1.3	0
3501	2959	1.4	0
3501	2959	1.5	0
3501	2959	1.6	0
3501	2959	1.7	0
3501	2959	1.8	0
3501	2959	1.9	0
3503	2959	0.1	0
3503	2959	0.2	0
3503	2959	0.3	0
3503	2959	0.4	0
3503	2959	0.5	0
3503	2959	0.6	0
3503	2959	0.7	0
3503	2959	0.8	0
3503	2959	0.9	0
3503	2959	1	0
3503	2959	1.1	0
3503	2959	1.2	0
3503	2959	1.3	0
3503	2959	1.4	0
3503	2959	1.5	0
3503	2959	1.6	0
3503	2959	1.7	0
3503	2959	1.8	0
3503	2959	1.9	0
3582	2959	0.1	0
3582	2959	0.2	0
3582	2959	0.3	0
3582	2959	0.4	0
3582	2959	0.5	0
3582	2959	0.6	0
3582	2959	0.7	0
3582	2959	0.8	0
3582	2959	0.9	0
3582	2959	1	0
3582	2959	1.1	0
3582	2959	1.2	0
3582	2959	1.3	0
3582	2959	1.4	0
3582	2959	1.5	0
3582	2959	1.6	0
3582	2959	1.7	0
3582	2959	1.8	0
3582	2959	1.9	0
3584	2959	0.1	0
3584	2959	0.2	0
3584	2959	0.3	0
3584	2959	0.4	0
3584	2959	0.5	0
3584	2959	0.6	0
3584	2959	0.7	0
3584	2959	0.8	0
3584	2959	0.9	0
3584	2959	1	0
3584	2959	1.1	0
3584	2959	1.2	0
3584	2959	1.3	0
3584	2959	1.4	0
3584	2959	1.5	0
3584	2959	1.6	0
3584	2959	1.7	0
3584	2959	1.8	0
3584	2959	1.9	0
3663	2959	0.1	0
3663	2959	0.2	0
3663	2959	0.3	0
3663	2959	0.4	0
3663	2959	0.5	0
3663	2959	0.6	0
3663	2959	0.7	0
3663	2959	0.8	0
3663	2959	0.9	0
3663	2959	1	0
3663	2959	1.1	0
3663	2959	1.2	0
3663	2959	1.3	0
3663	2959	1.4	0
3663	2959	1.5	0
3663	2959	1.6	0
3663	2959	1.7	0
3663	2959	1.8	0
3663	2959	1.9	0
3665	2959	0.1	0
3665	2959	0.2	0
3665	2959	0.3	0
3665	2959	0.4	0
3665	2959	0.5	0
3665	2959	0.6	0
3665	2959	0.7	0
3665	2959	0.8	0
3665	2959	0.9	0
3665	2959	1	0
3665	2959	1.1	0
3665	2959	1.2	0
3665	2959	1.3	0
3665	2959	1.4	0
3665	2959	1.5	0
3665	2959	1.6	0
3665	2959	1.7	0
3665	2959	1.8	0
3665	2959	1.9	0
3744	2959	0.1	0
3744	2959	0.2	0
3744	2959	0.3	0
3744	2959	0.4	0
3744	2959	0.5	0
3744	2959	0.6	0
3744	2959	0.7	0
3744	2959	0.8	0
3744	2959	0.9	0
3744	2959	1	0
3744	2959	1.1	0
3744	2959	1.2	0
3744	2959	1.3	0
3744	2959	1.4	0
3744	2959	1.5	0
3744	2959	1.6	0
3744	2959	1.7	0
3744	2959	1.8	0
3744	2959	1.9	0
3746	2959	0.1	0
3746	2959	0.2	0
3746	2959	0.3	0
3746	2959	0.4	0
3746	2959	0.5	0
3746	2959	0.6	0
3746	2959	0.7	0
3746	2959	0.8	0
3746	2959	0.9	0
3746	2959	1	0
3746	2959	1.1	0
3746	2959	1.2	0
3746	2959	1.3	0
3746	2959	1.4	0
3746	2959	1.5	0
3746	2959	1.6	0
3746	2959	1.7	0
3746	2959	1.8	0
3746	2959	1.9	0
3825	2959	0.1	0
3825	2959	0.2	0
3825	2959	0.3	0
3825	2959	0.4	0
3825	2959	0.5	0
3825	2959	0.6	0
3825	2959	0.7	0
3825	2959	0.8	0
3825	2959	0.9	0
3825	2959	1	0
3825	2959	1.1	0
3825	2959	1.2	0
3825	2959	1.3	0
3825	2959	1.4	0
3825	2959	1.5	0
3825	2959	1.6	0
3825	2959	1.7	0
3825	2959	1.8	0
3825	2959	1.9	0
3827	2959	0.1	0
3827	2959	0.2	0
3827	2959	0.3	0
3827	2959	0.4	0
3827	2959	0.5	0
3827	2959	0.6	0
3827	2959	0.7	0
3827	2959	0.8	0
3827	2959	0.9	0
3827	2959	1	0
3827	2959	1.1	0
3827	2959	1.2	0
3827	2959	1.3	0
3827	2959	1.4	0
3827	2959	1.5	0
3827	2959	1.6	0
3827	2959	1.7	0
3827	2959	1.8	0
3827	2959	1.9	0
3906	2959	0.1	0
3906	2959	0.2	0
3906	2959	0.3	0
3906	2959	0.4	0
3906	2959	0.5	0
3906	2959	0.6	0
3906	2959	0.7	0
3906	2959	0.8	0
3906	2959	0.9	0
3906	2959	1	0
3906	2959	1.1	0
3906	2959	1.2	0
3906	2959	1.3	0
3906	2959	1.4	0
3906	2959	1.5	0
3906	2959	1.6	0
3906	2959	1.7	0
3906	2959	1.8	0
3906	2959	1.9	0
3908	2959	0.1	0
3908	2959	0.2	0
3908	2959	0.3	0
3908	2959	0.4	0
3908	2959	0.5	0
3908	2959	0.6	0
3908	2959	0.7	0
3908	2959	0.8	0
3908	2959	0.9	0
3908	2959	1	0
3908	2959	1.1	0
3908	2959	1.2	0
3908	2959	1.3	0
3908	2959	1.4	0
3908	2959	1.5	0
3908	2959	1.6	0
3908	2959	1.7	0
3908	2959	1.8	0
3908	2959	1.9	0
3987	2959	0.1	0
3987	2959	0.2	0
3987	2959	0.3	0
3987	2959	0.4	0
3987	2959	0.5	0
3987	2959	0.6	0
3987	2959	0.7	0
3987	2959	0.8	0
3987	2959	0.9	0
3987	2959	1	0
3987	2959	1.1	0
3987	2959	1.2	0
3987	2959	1.3	0
3987	2959	1.4	0
3987	2959	1.5	0
3987	2959	1.6	0
3987	2959	1.7	0
3987	2959	1.8	0
3987	2959	1.9	0
3989	2959	0.1	0
3989	2959	0.2	0
3989	2959	0.3	0
3989	2959	0.4	0
3989	2959	0.5	0
3989	2959	0.6	0
3989	2959	0.7	0
3989	2959	0.8	0
3989	2959	0.9	0
3989	2959	1	0
3989	2959	1.1	0
3989	2959	1.2	0
3989	2959	1.3	0
3989	2959	1.4	0
3989	2959	1.5	0
3989	2959	1.6	0
3989	2959	1.7	0
3989	2959	1.8	0
3989	2959	1.9	0

