version 3
run WSN_Network-0-20250527-11:55:44-17188
attr configname WSN_Network
attr datetime 20250527-11:55:44
attr datetimef 20250527-115544
attr experiment WSN_Network
attr inifile omnetpp.ini
attr iterationvars ""
attr iterationvarsd ""
attr iterationvarsf ""
attr measurement ""
attr network WSN_Network
attr processid 17188
attr repetition 0
attr replication #0
attr resultdir results
attr runnumber 0
attr seedset 0
config image-path ../../inet4.5/images
config **.client.numApps 1
config **.client.app[*].typename TcpSessionApp
config **.client.app[*].active true
config **.client.app[*].localAddress "\"\""
config **.client.app[*].localPort -1
config **.client.app[*].connectAddress "\"server\""
config **.client.app[*].connectPort 1000
config **.client.app[*].tOpen 1.0s
config **.client.app[*].tSend 1.1s
config **.client.app[*].sendBytes 1MiB
config **.client.app[*].sendScript "\"\""
config **.client.app[*].tClose 0s
config **.server.numApps 1
config **.server.app[*].typename TcpEchoApp
config **.server.app[0].localAddress "\"\""
config **.server.app[0].localPort 1000
config **.server.app[0].echoFactor 2.0
config **.server.app[0].echoDelay 0s
config **.eth[*].duplexMode true
config **.ppp[*].queue.typename DropTailQueue
config **.ppp[*].queue.packetCapacity 10
config *.numSensors 50
config **.constraintAreaMinX 0m
config **.constraintAreaMinY 0m
config **.constraintAreaMinZ 0m
config **.constraintAreaMaxX 2500m
config **.constraintAreaMaxY 2500m
config **.constraintAreaMaxZ 50m
config *.Sensor_Node[*].mobility.typename MassMobility
config *.Sensor_Node[*].mobility.changeInterval "truncnormal(2s, 0.5s)"
config *.Sensor_Node[*].mobility.angleDelta "normal(0deg, 30deg)"
config *.Sensor_Node[*].mobility.speed "truncnormal(20mps, 8mps)"
config *.Sensor_Node[*].mobility.updateInterval 100ms
config *.Sensor_Node[*].mobility.initFromDisplayString false
config *.Sensor_Node[*].networkLayer.typename Ipv4NetworkLayer
config *.Sensor_Node[*].networkLayer.ip.routingProtocol.typename OlsrRouting
config *.Sensor_Node[*].networkLayer.ip.forward true
config *.Sensor_Node[0].numApps 0
config *.Sensor_Node[*].numApps 2
config *.Sensor_Node[*].app[*].typename PingApp
config *.Sensor_Node[*].app[*].destAddr "\"Sensor_Node[0]\""
config *.Sensor_Node[*].app[0].startTime uniform(1s,5s)
config *.Sensor_Node[*].app[1].startTime 5s+uniform(1s,5s)
config *.Sensor_Node[*].app[*].printPing true
config *.Sensor_Node[*].wlan[*].radio.transmitter.power 5mW
config network WSN_Network
config sim-time-limit 500s
config total-stack 2MiB

par WSN_Network.radioMedium.propagation typename "\"inet.physicallayer.wireless.common.propagation.ConstantSpeedPropagation\""
par WSN_Network.radioMedium.propagation propagationSpeed 2.99792e+08mps
attr unit mps
par WSN_Network.radioMedium.propagation ignoreMovementDuringTransmission true
par WSN_Network.radioMedium.propagation ignoreMovementDuringPropagation true
par WSN_Network.radioMedium.propagation ignoreMovementDuringReception true
scalar WSN_Network.radioMedium.propagation "Arrival computation count" 833
par WSN_Network.radioMedium.analogModel typename "\"inet.physicallayer.wireless.common.analogmodel.packetlevel.ScalarAnalogModel\""
par WSN_Network.radioMedium.analogModel ignorePartialInterference false
par WSN_Network.radioMedium.backgroundNoise typename "\"inet.physicallayer.wireless.common.backgroundnoise.IsotropicScalarBackgroundNoise\""
par WSN_Network.radioMedium.backgroundNoise power -110dBm
attr unit dBm
par WSN_Network.radioMedium.backgroundNoise bandwidth "nan Hz"
attr unit Hz
par WSN_Network.radioMedium.pathLoss typename "\"inet.physicallayer.wireless.common.pathloss.FreeSpacePathLoss\""
par WSN_Network.radioMedium.pathLoss alpha 2
par WSN_Network.radioMedium.pathLoss systemLoss 0dB
attr unit dB
par WSN_Network.radioMedium.mediumLimitCache typename "\"inet.physicallayer.wireless.common.medium.MediumLimitCache\""
par WSN_Network.radioMedium.mediumLimitCache centerFrequency 2.4e+09Hz
attr unit Hz
par WSN_Network.radioMedium.mediumLimitCache maxSpeed "nan mps"
attr unit mps
par WSN_Network.radioMedium.mediumLimitCache maxTransmissionPower "nan W"
attr unit W
par WSN_Network.radioMedium.mediumLimitCache minInterferencePower -110dBm
attr unit dBm
par WSN_Network.radioMedium.mediumLimitCache minReceptionPower -85dBm
attr unit dBm
par WSN_Network.radioMedium.mediumLimitCache maxAntennaGain 0dB
attr unit dB
par WSN_Network.radioMedium.mediumLimitCache minInterferenceTime 1e-12s
attr unit s
par WSN_Network.radioMedium.mediumLimitCache maxTransmissionDuration 0.01s
attr unit s
par WSN_Network.radioMedium.mediumLimitCache maxCommunicationRange "nan m"
attr unit m
par WSN_Network.radioMedium.mediumLimitCache maxInterferenceRange "nan m"
attr unit m
par WSN_Network.radioMedium.communicationCache typename "\"inet.physicallayer.wireless.common.communicationcache.VectorCommunicationCache\""
par WSN_Network.radioMedium typename "\"inet.physicallayer.wireless.ieee80211.packetlevel.Ieee80211ScalarRadioMedium\""
par WSN_Network.radioMedium physicalEnvironmentModule "\"physicalEnvironment\""
par WSN_Network.radioMedium signalAnalogRepresentation "\"scalar\""
attr enum unitDisk,scalar,dimensional
par WSN_Network.radioMedium rangeFilter "\"\""
par WSN_Network.radioMedium radioModeFilter false
par WSN_Network.radioMedium listeningFilter false
par WSN_Network.radioMedium macAddressFilter false
par WSN_Network.radioMedium recordTransmissionLog false
par WSN_Network.radioMedium recordReceptionLog false
scalar WSN_Network.radioMedium "transmission count" 17
scalar WSN_Network.radioMedium "signal send count" 833
scalar WSN_Network.radioMedium "reception computation count" 833
scalar WSN_Network.radioMedium "interference computation count" 2616
scalar WSN_Network.radioMedium "reception decision computation count" 81
scalar WSN_Network.radioMedium "listening decision computation count" 1702
scalar WSN_Network.radioMedium "reception cache hit" 76.699300699301
attr unit %
scalar WSN_Network.radioMedium "interference cache hit" 66.666666666667
attr unit %
scalar WSN_Network.radioMedium "noise cache hit" 0
attr unit %
scalar WSN_Network.radioMedium "snir cache hit" 50
attr unit %
scalar WSN_Network.radioMedium "reception decision cache hit" 50
attr unit %
scalar WSN_Network.radioMedium "reception result cache hit" 0
attr unit %
par WSN_Network.server.interfaceTable typename "\"inet.networklayer.common.InterfaceTable\""
par WSN_Network.server.interfaceTable displayAddresses false
par WSN_Network.server.cb typename "\"inet.common.MessageDispatcher\""
par WSN_Network.server.cb displayStringTextFormat "\"processed %p pk (%l)\""
par WSN_Network.server.cb forwardServiceRegistration true
par WSN_Network.server.cb forwardProtocolRegistration true
par WSN_Network.server.bl typename "\"inet.common.MessageDispatcher\""
par WSN_Network.server.bl displayStringTextFormat "\"processed %p pk (%l)\""
par WSN_Network.server.bl forwardServiceRegistration true
par WSN_Network.server.bl forwardProtocolRegistration true
par WSN_Network.server.li typename "\"inet.common.MessageDispatcher\""
par WSN_Network.server.li displayStringTextFormat "\"processed %p pk (%l)\""
par WSN_Network.server.li forwardServiceRegistration true
par WSN_Network.server.li forwardProtocolRegistration true
par WSN_Network.server.lo[0].upperLayerIn.channel typename "\"ned.IdealChannel\""
par WSN_Network.server.lo[0].lo.upperLayerOut.channel typename "\"ned.IdealChannel\""
par WSN_Network.server.lo[0].lo typename "\"inet.linklayer.loopback.Loopback\""
par WSN_Network.server.lo[0].lo interfaceTableModule "\"WSN_Network.server.interfaceTable\""
par WSN_Network.server.lo[0].lo mtu 4470B
attr unit B
scalar WSN_Network.server.lo[0].lo rcvdPkFromHl:count 0
attr interpolationmode none
attr recordingmode count
attr source packetReceivedFromUpper
attr title "packets received from higher layer, count"
scalar WSN_Network.server.lo[0].lo rcvdPkFromHl:sum(packetBytes) 0
attr interpolationmode none
attr recordingmode sum(packetBytes)
attr source packetReceivedFromUpper
attr title "packets received from higher layer, sum(packetBytes)"
scalar WSN_Network.server.lo[0].lo passedUpPk:count 0
attr interpolationmode none
attr recordingmode count
attr source packetSentToUpper
attr title "packets passed to higher layer, count"
scalar WSN_Network.server.lo[0].lo passedUpPk:sum(packetBytes) 0
attr interpolationmode none
attr recordingmode sum(packetBytes)
attr source packetSentToUpper
attr title "packets passed to higher layer, sum(packetBytes)"
par WSN_Network.server.lo[0] typename "\"inet.linklayer.loopback.LoopbackInterface\""
par WSN_Network.server.lo[0] displayStringTextFormat "\"%a (%i)\\n%m\""
par WSN_Network.server.lo[0] recordPcap false
par WSN_Network.server.lo[0] numPcapRecorders 0
par WSN_Network.server.lo[0] interfaceTableModule "\"WSN_Network.server.interfaceTable\""
scalar WSN_Network.server.lo[0] packetDropInterfaceDown:count 0
attr interpolationmode none
attr recordingmode count
attr source packetDropReasonIsInterfaceDown(packetDropped)
attr title "packet drops: interface down, count"
scalar WSN_Network.server.lo[0] packetDropInterfaceDown:sum(packetBytes) 0
attr interpolationmode none
attr recordingmode sum(packetBytes)
attr source packetDropReasonIsInterfaceDown(packetDropped)
attr title "packet drops: interface down, sum(packetBytes)"
scalar WSN_Network.server.lo[0] packetDropNoCarrier:count 0
attr interpolationmode none
attr recordingmode count
attr source packetDropReasonIsNoCarrier(packetDropped)
attr title "packet drops: no carrier, count"
scalar WSN_Network.server.lo[0] packetDropNoCarrier:sum(packetBytes) 0
attr interpolationmode none
attr recordingmode sum(packetBytes)
attr source packetDropReasonIsNoCarrier(packetDropped)
attr title "packet drops: no carrier, sum(packetBytes)"
par WSN_Network.server.ipv4.transportIn.channel typename "\"ned.IdealChannel\""
par WSN_Network.server.ipv4.up.out[0].channel typename "\"ned.IdealChannel\""
par WSN_Network.server.ipv4.lp.out[2].channel typename "\"ned.IdealChannel\""
par WSN_Network.server.ipv4.ifIn.channel typename "\"ned.IdealChannel\""
par WSN_Network.server.ipv4.configurator typename "\"inet.networklayer.configurator.ipv4.Ipv4NodeConfigurator\""
par WSN_Network.server.ipv4.configurator interfaceTableModule "\"WSN_Network.server.interfaceTable\""
par WSN_Network.server.ipv4.configurator routingTableModule "\"WSN_Network.server.ipv4.routingTable\""
par WSN_Network.server.ipv4.configurator networkConfiguratorModule "\"configurator\""
par WSN_Network.server.ipv4.configurator configureRoutingTable true
par WSN_Network.server.ipv4.routingTable typename "\"inet.networklayer.ipv4.Ipv4RoutingTable\""
par WSN_Network.server.ipv4.routingTable interfaceTableModule "\"WSN_Network.server.interfaceTable\""
par WSN_Network.server.ipv4.routingTable routerId "\"auto\""
par WSN_Network.server.ipv4.routingTable netmaskRoutes "\"*\""
par WSN_Network.server.ipv4.routingTable forwarding false
par WSN_Network.server.ipv4.routingTable multicastForwarding false
par WSN_Network.server.ipv4.routingTable useAdminDist false
par WSN_Network.server.ipv4.routingTable routingFile "\"\""
par WSN_Network.server.ipv4.natTable typename "\"inet.networklayer.ipv4.Ipv4NatTable\""
par WSN_Network.server.ipv4.natTable networkProtocolModule "\"^.ip\""
par WSN_Network.server.ipv4.natTable config "<config/> at content:1"
par WSN_Network.server.ipv4.up typename "\"inet.common.MessageDispatcher\""
par WSN_Network.server.ipv4.up displayStringTextFormat "\"processed %p pk (%l)\""
par WSN_Network.server.ipv4.up forwardServiceRegistration true
par WSN_Network.server.ipv4.up forwardProtocolRegistration true
par WSN_Network.server.ipv4.igmp typename "\"inet.networklayer.ipv4.Igmpv2\""
par WSN_Network.server.ipv4.igmp interfaceTableModule "\"WSN_Network.server.interfaceTable\""
par WSN_Network.server.ipv4.igmp routingTableModule "\"WSN_Network.server.ipv4.routingTable\""
par WSN_Network.server.ipv4.igmp crcMode "\"declared\""
attr enum declared,computed
par WSN_Network.server.ipv4.igmp enabled true
par WSN_Network.server.ipv4.igmp robustnessVariable 2
par WSN_Network.server.ipv4.igmp queryInterval 125s
attr unit s
par WSN_Network.server.ipv4.igmp queryResponseInterval 10s
attr unit s
par WSN_Network.server.ipv4.igmp groupMembershipInterval 260s
attr unit s
par WSN_Network.server.ipv4.igmp otherQuerierPresentInterval 255s
attr unit s
par WSN_Network.server.ipv4.igmp startupQueryInterval 31.25s
attr unit s
par WSN_Network.server.ipv4.igmp startupQueryCount 2
par WSN_Network.server.ipv4.igmp lastMemberQueryInterval 1s
attr unit s
par WSN_Network.server.ipv4.igmp lastMemberQueryCount 2
par WSN_Network.server.ipv4.igmp unsolicitedReportInterval 10s
attr unit s
par WSN_Network.server.ipv4.icmp typename "\"inet.networklayer.ipv4.Icmp\""
par WSN_Network.server.ipv4.icmp interfaceTableModule "\"WSN_Network.server.interfaceTable\""
par WSN_Network.server.ipv4.icmp routingTableModule "\"WSN_Network.server.ipv4.routingTable\""
par WSN_Network.server.ipv4.icmp crcMode "\"declared\""
attr enum declared,computed
attr mutable ""
par WSN_Network.server.ipv4.icmp quoteLength 8B
attr mutable ""
attr unit B
par WSN_Network.server.ipv4.mp typename "\"inet.common.MessageDispatcher\""
par WSN_Network.server.ipv4.mp displayStringTextFormat "\"processed %p pk (%l)\""
par WSN_Network.server.ipv4.mp forwardServiceRegistration true
par WSN_Network.server.ipv4.mp forwardProtocolRegistration true
par WSN_Network.server.ipv4.ip typename "\"inet.networklayer.ipv4.Ipv4\""
par WSN_Network.server.ipv4.ip interfaceTableModule "\"WSN_Network.server.interfaceTable\""
par WSN_Network.server.ipv4.ip routingTableModule "\"WSN_Network.server.ipv4.routingTable\""
par WSN_Network.server.ipv4.ip arpModule "\"WSN_Network.server.ipv4.arp\""
par WSN_Network.server.ipv4.ip icmpModule "\"WSN_Network.server.ipv4.icmp\""
par WSN_Network.server.ipv4.ip crcMode "\"declared\""
attr enum declared,computed
par WSN_Network.server.ipv4.ip timeToLive 32
par WSN_Network.server.ipv4.ip multicastTimeToLive 32
par WSN_Network.server.ipv4.ip fragmentTimeout 60s
attr unit s
par WSN_Network.server.ipv4.ip limitedBroadcast false
par WSN_Network.server.ipv4.ip directBroadcastInterfaces "\"\""
scalar WSN_Network.server.ipv4.ip packetDropAddressResolutionFailed:count 0
attr interpolationmode none
attr recordingmode count
attr source packetDropReasonIsAddressResolutionFailed(packetDropped)
attr title "packet drop: address resolution failed, count"
scalar WSN_Network.server.ipv4.ip packetDropAddressResolutionFailed:sum(packetBytes) 0
attr interpolationmode none
attr recordingmode sum(packetBytes)
attr source packetDropReasonIsAddressResolutionFailed(packetDropped)
attr title "packet drop: address resolution failed, sum(packetBytes)"
scalar WSN_Network.server.ipv4.ip packetDropHopLimitReached:count 0
attr interpolationmode none
attr recordingmode count
attr source packetDropReasonIsHopLimitReached(packetDropped)
attr title "packet drop: hop limit reached, count"
scalar WSN_Network.server.ipv4.ip packetDropHopLimitReached:sum(packetBytes) 0
attr interpolationmode none
attr recordingmode sum(packetBytes)
attr source packetDropReasonIsHopLimitReached(packetDropped)
attr title "packet drop: hop limit reached, sum(packetBytes)"
scalar WSN_Network.server.ipv4.ip packetDropForwardingDisabled:count 0
attr interpolationmode none
attr recordingmode count
attr source packetDropReasonIsForwardingDisabled(packetDropped)
attr title "packet drop: forwarding disabled, count"
scalar WSN_Network.server.ipv4.ip packetDropForwardingDisabled:sum(packetBytes) 0
attr interpolationmode none
attr recordingmode sum(packetBytes)
attr source packetDropReasonIsForwardingDisabled(packetDropped)
attr title "packet drop: forwarding disabled, sum(packetBytes)"
scalar WSN_Network.server.ipv4.ip packetDropNoInterfaceFound:count 0
attr interpolationmode none
attr recordingmode count
attr source packetDropReasonIsNoInterfaceFound(packetDropped)
attr title "packet drop: no interface found, count"
scalar WSN_Network.server.ipv4.ip packetDropNoInterfaceFound:sum(packetBytes) 0
attr interpolationmode none
attr recordingmode sum(packetBytes)
attr source packetDropReasonIsNoInterfaceFound(packetDropped)
attr title "packet drop: no interface found, sum(packetBytes)"
scalar WSN_Network.server.ipv4.ip packetDropNoRouteFound:count 0
attr interpolationmode none
attr recordingmode count
attr source packetDropReasonIsNoRouteFound(packetDropped)
attr title "packet drop: no route found, count"
scalar WSN_Network.server.ipv4.ip packetDropNoRouteFound:sum(packetBytes) 0
attr interpolationmode none
attr recordingmode sum(packetBytes)
attr source packetDropReasonIsNoRouteFound(packetDropped)
attr title "packet drop: no route found, sum(packetBytes)"
scalar WSN_Network.server.ipv4.ip packetDropUndefined:count 0
attr interpolationmode none
attr recordingmode count
attr source packetDropReasonIsUndefined(packetDropped)
attr title "packet drop: undefined, count"
scalar WSN_Network.server.ipv4.ip packetDropUndefined:sum(packetBytes) 0
attr interpolationmode none
attr recordingmode sum(packetBytes)
attr source packetDropReasonIsUndefined(packetDropped)
attr title "packet drop: undefined, sum(packetBytes)"
par WSN_Network.server.ipv4.arp typename "\"inet.networklayer.arp.ipv4.Arp\""
par WSN_Network.server.ipv4.arp interfaceTableModule "\"WSN_Network.server.interfaceTable\""
par WSN_Network.server.ipv4.arp routingTableModule "\"WSN_Network.server.ipv4.routingTable\""
par WSN_Network.server.ipv4.arp retryTimeout 1s
attr unit s
par WSN_Network.server.ipv4.arp retryCount 3
par WSN_Network.server.ipv4.arp cacheTimeout 120s
attr unit s
par WSN_Network.server.ipv4.arp proxyArpInterfaces "\"\""
scalar WSN_Network.server.ipv4.arp arpReplySent:count 0
attr recordingmode count
attr source arpReplySent
attr title "ARP replies sent, count"
scalar WSN_Network.server.ipv4.arp arpReplySent:sum(packetBytes) 0
attr recordingmode sum(packetBytes)
attr source arpReplySent
attr title "ARP replies sent, sum(packetBytes)"
scalar WSN_Network.server.ipv4.arp arpRequestSent:count 0
attr recordingmode count
attr source arpRequestSent
attr title "ARP request sent, count"
scalar WSN_Network.server.ipv4.arp arpRequestSent:sum(packetBytes) 0
attr recordingmode sum(packetBytes)
attr source arpRequestSent
attr title "ARP request sent, sum(packetBytes)"
scalar WSN_Network.server.ipv4.arp arpResolutionFailed:count 0
attr recordingmode count
attr title "ARP failed resolutions, count"
scalar WSN_Network.server.ipv4.arp arpResolutionCompleted:count 0
attr recordingmode count
attr title "ARP completed resolutions, count"
scalar WSN_Network.server.ipv4.arp arpResolutionInitiated:count 0
attr recordingmode count
attr title "ARP initiated resolutions, count"
par WSN_Network.server.ipv4.lp typename "\"inet.common.MessageDispatcher\""
par WSN_Network.server.ipv4.lp displayStringTextFormat "\"processed %p pk (%l)\""
par WSN_Network.server.ipv4.lp forwardServiceRegistration true
par WSN_Network.server.ipv4.lp forwardProtocolRegistration true
par WSN_Network.server.ipv4 typename "\"inet.networklayer.ipv4.Ipv4NetworkLayer\""
par WSN_Network.server.ipv4 forwarding false
par WSN_Network.server.ipv4 multicastForwarding false
par WSN_Network.server.ipv4 interfaceTableModule "\"WSN_Network.server.interfaceTable\""
par WSN_Network.server.ipv4 displayStringTextFormat "\"%i\""
par WSN_Network.server.nl typename "\"inet.common.MessageDispatcher\""
par WSN_Network.server.nl displayStringTextFormat "\"processed %p pk (%l)\""
par WSN_Network.server.nl forwardServiceRegistration true
par WSN_Network.server.nl forwardProtocolRegistration true
par WSN_Network.server.udp typename "\"inet.transportlayer.udp.Udp\""
par WSN_Network.server.udp interfaceTableModule "\"WSN_Network.server.interfaceTable\""
par WSN_Network.server.udp icmpModule "\"^.ipv4.icmp\""
par WSN_Network.server.udp icmpv6Module "\"^.ipv6.icmpv6\""
par WSN_Network.server.udp crcMode "\"declared\""
attr enum disabled,declared,computed
par WSN_Network.server.udp defaultMulticastLoop true
scalar WSN_Network.server.udp packetReceived:count 0
attr interpolationmode none
attr recordingmode count
attr source packetReceived
attr title "packets received, count"
scalar WSN_Network.server.udp packetReceived:sum(packetBytes) 0
attr interpolationmode none
attr recordingmode sum(packetBytes)
attr source packetReceived
attr title "packets received, sum(packetBytes)"
scalar WSN_Network.server.udp packetSent:count 0
attr interpolationmode none
attr recordingmode count
attr source packetSent
attr title "packets sent, count"
scalar WSN_Network.server.udp packetSent:sum(packetBytes) 0
attr interpolationmode none
attr recordingmode sum(packetBytes)
attr source packetSent
attr title "packets sent, sum(packetBytes)"
scalar WSN_Network.server.udp passedUpPk:count 0
attr interpolationmode none
attr recordingmode count
attr source packetSentToUpper
attr title "packets passed up, count"
scalar WSN_Network.server.udp droppedPkWrongPort:count 0
attr interpolationmode none
attr recordingmode count
attr source packetDropReasonIsNoPortFound(packetDropped)
attr title "packets dropped (wrong port), count"
scalar WSN_Network.server.udp droppedPkBadChecksum:count 0
attr interpolationmode none
attr recordingmode count
attr source packetDropReasonIsIncorrectlyReceived(packetDropped)
attr title "packets dropped (checksum error), count"
par WSN_Network.server.tcp.conn-0 typename "\"inet.transportlayer.tcp.TcpConnection\""
par WSN_Network.server.tcp typename "\"inet.transportlayer.tcp.Tcp\""
par WSN_Network.server.tcp crcMode "\"declared\""
attr enum declared,computed
par WSN_Network.server.tcp advertisedWindow 7504
par WSN_Network.server.tcp delayedAcksEnabled false
par WSN_Network.server.tcp nagleEnabled true
par WSN_Network.server.tcp limitedTransmitEnabled false
par WSN_Network.server.tcp increasedIWEnabled false
par WSN_Network.server.tcp sackSupport false
par WSN_Network.server.tcp windowScalingSupport false
par WSN_Network.server.tcp windowScalingFactor -1
par WSN_Network.server.tcp timestampSupport false
par WSN_Network.server.tcp mss 536
par WSN_Network.server.tcp msl 120s
attr unit s
par WSN_Network.server.tcp tcpAlgorithmClass "\"TcpReno\""
par WSN_Network.server.tcp useDataNotification false
par WSN_Network.server.tcp dupthresh 3
par WSN_Network.server.tcp initialSsthresh 4294967295
par WSN_Network.server.tcp stopOperationExtraTime 0s
attr unit s
par WSN_Network.server.tcp stopOperationTimeout 2s
attr unit s
par WSN_Network.server.tcp ecnWillingness false
par WSN_Network.server.tcp dctcpGamma 0.0625
par WSN_Network.server.tn typename "\"inet.common.MessageDispatcher\""
par WSN_Network.server.tn displayStringTextFormat "\"processed %p pk (%l)\""
par WSN_Network.server.tn forwardServiceRegistration true
par WSN_Network.server.tn forwardProtocolRegistration true
par WSN_Network.server.app[0] typename "\"inet.applications.tcpapp.TcpEchoApp\""
par WSN_Network.server.app[0] localAddress "\"\""
par WSN_Network.server.app[0] localPort 1000
par WSN_Network.server.app[0] serverThreadModuleType "\"inet.applications.tcpapp.TcpEchoAppThread\""
par WSN_Network.server.app[0] stopOperationExtraTime -1s
attr unit s
par WSN_Network.server.app[0] stopOperationTimeout 2s
attr unit s
par WSN_Network.server.app[0] echoFactor 2
par WSN_Network.server.app[0] echoDelay 0s
attr unit s
scalar WSN_Network.server.app[0] bytesRcvd 0
scalar WSN_Network.server.app[0] bytesSent 0
scalar WSN_Network.server.app[0] packetReceived:count 0
attr interpolationmode none
attr recordingmode count
attr source packetReceived
attr title "packets received, count"
scalar WSN_Network.server.app[0] packetReceived:sum(packetBytes) 0
attr interpolationmode none
attr recordingmode sum(packetBytes)
attr source packetReceived
attr title "packets received, sum(packetBytes)"
statistic WSN_Network.server.app[0] endToEndDelay:histogram
field count 0
field mean nan
field stddev nan
field min nan
field max nan
field sum 0
field sqrsum 0
attr interpolationmode none
attr recordingmode histogram
attr source dataAge(packetReceived)
attr title "end-to-end delay"
attr unit s
bin	-inf	0
bin	0	0
bin	1	0
statistic WSN_Network.server.app[0] endToEndDelay:weightedHistogram
field count 0
field mean nan
field stddev nan
field min nan
field max nan
field weights 0
field weightedSum 0
field sqrSumWeights 0
field weightedSqrSum 0
attr interpolationmode none
attr recordingmode weightedHistogram
attr source dataAge(packetReceived)
attr title "end-to-end delay, weightedHistogram"
attr unit s
bin	-inf	0
bin	0	0
bin	1	0
scalar WSN_Network.server.app[0] packetSent:count 0
attr interpolationmode none
attr recordingmode count
attr source packetSent
attr title "packets sent, count"
scalar WSN_Network.server.app[0] packetSent:sum(packetBytes) 0
attr interpolationmode none
attr recordingmode sum(packetBytes)
attr source packetSent
attr title "packets sent, sum(packetBytes)"
par WSN_Network.server.at typename "\"inet.common.MessageDispatcher\""
par WSN_Network.server.at displayStringTextFormat "\"processed %p pk (%l)\""
par WSN_Network.server.at forwardServiceRegistration true
par WSN_Network.server.at forwardProtocolRegistration true
par WSN_Network.server typename "\"inet.node.inet.StandardHost\""
par WSN_Network.server hasStatus false
par WSN_Network.server osgModel "\"\""
par WSN_Network.server osgModelColor "\"\""
par WSN_Network.server canvasImage "\"\""
par WSN_Network.server canvasImageColor "\"\""
par WSN_Network.server recordPcap false
par WSN_Network.server numPcapRecorders 0
par WSN_Network.server numLoInterfaces 1
par WSN_Network.server numWlanInterfaces 0
par WSN_Network.server numEthInterfaces 0
par WSN_Network.server numPppInterfaces 0
par WSN_Network.server numTunInterfaces 0
par WSN_Network.server numVirtInterfaces 0
par WSN_Network.server fcsMode "\"declared\""
attr enum declared,computed
par WSN_Network.server hasIpv4 true
par WSN_Network.server hasIpv6 false
par WSN_Network.server hasGn false
par WSN_Network.server forwarding false
par WSN_Network.server multicastForwarding false
par WSN_Network.server hasUdp true
par WSN_Network.server hasTcp true
par WSN_Network.server hasSctp false
par WSN_Network.server numApps 1
par WSN_Network.configurator typename "\"inet.networklayer.configurator.ipv4.Ipv4NetworkConfigurator\""
par WSN_Network.configurator minLinkWeight 0.001
par WSN_Network.configurator configureIsolatedNetworksSeparatly false
par WSN_Network.configurator config "<config>...</config> at content:1"
par WSN_Network.configurator assignAddresses true
par WSN_Network.configurator assignUniqueAddresses true
par WSN_Network.configurator assignDisjunctSubnetAddresses true
par WSN_Network.configurator addStaticRoutes true
par WSN_Network.configurator addDefaultRoutes true
par WSN_Network.configurator addSubnetRoutes true
par WSN_Network.configurator addDirectRoutes true
par WSN_Network.configurator optimizeRoutes true
par WSN_Network.configurator dumpTopology false
par WSN_Network.configurator dumpLinks false
par WSN_Network.configurator dumpAddresses false
par WSN_Network.configurator dumpRoutes false
par WSN_Network.configurator dumpConfig "\"\""
par WSN_Network.Sensor_Node[0].radioIn[0].channel typename "\"ned.IdealChannel\""
par WSN_Network.Sensor_Node[0].mobility typename "\"inet.mobility.single.MassMobility\""
par WSN_Network.Sensor_Node[0].mobility subjectModule "\"^\""
par WSN_Network.Sensor_Node[0].mobility coordinateSystemModule "\"\""
par WSN_Network.Sensor_Node[0].mobility displayStringTextFormat "\"p: %p\\nv: %v\""
attr mutable ""
par WSN_Network.Sensor_Node[0].mobility updateDisplayString true
par WSN_Network.Sensor_Node[0].mobility constraintAreaMinX 0m
attr unit m
par WSN_Network.Sensor_Node[0].mobility constraintAreaMinY 0m
attr unit m
par WSN_Network.Sensor_Node[0].mobility constraintAreaMinZ 0m
attr unit m
par WSN_Network.Sensor_Node[0].mobility constraintAreaMaxX 2500m
attr unit m
par WSN_Network.Sensor_Node[0].mobility constraintAreaMaxY 2500m
attr unit m
par WSN_Network.Sensor_Node[0].mobility constraintAreaMaxZ 50m
attr unit m
par WSN_Network.Sensor_Node[0].mobility updateInterval 0.1s
attr unit s
par WSN_Network.Sensor_Node[0].mobility faceForward true
par WSN_Network.Sensor_Node[0].mobility initialX 1372.03m
attr unit m
par WSN_Network.Sensor_Node[0].mobility initialY 1482.11m
attr unit m
par WSN_Network.Sensor_Node[0].mobility initialZ 35.7595m
attr unit m
par WSN_Network.Sensor_Node[0].mobility initialMovementHeading 303.936deg
attr unit deg
par WSN_Network.Sensor_Node[0].mobility initialMovementElevation 0deg
attr unit deg
par WSN_Network.Sensor_Node[0].mobility initFromDisplayString false
par WSN_Network.Sensor_Node[0].mobility changeInterval "truncnormal(2s, 0.5s)"
attr unit s
par WSN_Network.Sensor_Node[0].mobility angleDelta "normal(0deg, 30deg)"
attr unit deg
par WSN_Network.Sensor_Node[0].mobility rotationAxisAngle 0deg
attr unit deg
par WSN_Network.Sensor_Node[0].mobility speed "truncnormal(20mps, 8mps)"
attr mutable ""
attr unit mps
par WSN_Network.Sensor_Node[0].interfaceTable typename "\"inet.networklayer.common.InterfaceTable\""
par WSN_Network.Sensor_Node[0].interfaceTable displayAddresses false
par WSN_Network.Sensor_Node[0].cb typename "\"inet.common.MessageDispatcher\""
par WSN_Network.Sensor_Node[0].cb displayStringTextFormat "\"processed %p pk (%l)\""
par WSN_Network.Sensor_Node[0].cb forwardServiceRegistration true
par WSN_Network.Sensor_Node[0].cb forwardProtocolRegistration true
par WSN_Network.Sensor_Node[0].bl typename "\"inet.common.MessageDispatcher\""
par WSN_Network.Sensor_Node[0].bl displayStringTextFormat "\"processed %p pk (%l)\""
par WSN_Network.Sensor_Node[0].bl forwardServiceRegistration true
par WSN_Network.Sensor_Node[0].bl forwardProtocolRegistration true
par WSN_Network.Sensor_Node[0].li typename "\"inet.common.MessageDispatcher\""
par WSN_Network.Sensor_Node[0].li displayStringTextFormat "\"processed %p pk (%l)\""
par WSN_Network.Sensor_Node[0].li forwardServiceRegistration true
par WSN_Network.Sensor_Node[0].li forwardProtocolRegistration true
par WSN_Network.Sensor_Node[0].lo[0].upperLayerIn.channel typename "\"ned.IdealChannel\""
par WSN_Network.Sensor_Node[0].lo[0].lo.upperLayerOut.channel typename "\"ned.IdealChannel\""
par WSN_Network.Sensor_Node[0].lo[0].lo typename "\"inet.linklayer.loopback.Loopback\""
par WSN_Network.Sensor_Node[0].lo[0].lo interfaceTableModule "\"WSN_Network.Sensor_Node[0].interfaceTable\""
par WSN_Network.Sensor_Node[0].lo[0].lo mtu 4470B
attr unit B
scalar WSN_Network.Sensor_Node[0].lo[0].lo rcvdPkFromHl:count 0
attr interpolationmode none
attr recordingmode count
attr source packetReceivedFromUpper
attr title "packets received from higher layer, count"
scalar WSN_Network.Sensor_Node[0].lo[0].lo rcvdPkFromHl:sum(packetBytes) 0
attr interpolationmode none
attr recordingmode sum(packetBytes)
attr source packetReceivedFromUpper
attr title "packets received from higher layer, sum(packetBytes)"
scalar WSN_Network.Sensor_Node[0].lo[0].lo passedUpPk:count 0
attr interpolationmode none
attr recordingmode count
attr source packetSentToUpper
attr title "packets passed to higher layer, count"
scalar WSN_Network.Sensor_Node[0].lo[0].lo passedUpPk:sum(packetBytes) 0
attr interpolationmode none
attr recordingmode sum(packetBytes)
attr source packetSentToUpper
attr title "packets passed to higher layer, sum(packetBytes)"
par WSN_Network.Sensor_Node[0].lo[0] typename "\"inet.linklayer.loopback.LoopbackInterface\""
par WSN_Network.Sensor_Node[0].lo[0] displayStringTextFormat "\"%a (%i)\\n%m\""
par WSN_Network.Sensor_Node[0].lo[0] recordPcap false
par WSN_Network.Sensor_Node[0].lo[0] numPcapRecorders 0
par WSN_Network.Sensor_Node[0].lo[0] interfaceTableModule "\"WSN_Network.Sensor_Node[0].interfaceTable\""
scalar WSN_Network.Sensor_Node[0].lo[0] packetDropInterfaceDown:count 0
attr interpolationmode none
attr recordingmode count
attr source packetDropReasonIsInterfaceDown(packetDropped)
attr title "packet drops: interface down, count"
scalar WSN_Network.Sensor_Node[0].lo[0] packetDropInterfaceDown:sum(packetBytes) 0
attr interpolationmode none
attr recordingmode sum(packetBytes)
attr source packetDropReasonIsInterfaceDown(packetDropped)
attr title "packet drops: interface down, sum(packetBytes)"
scalar WSN_Network.Sensor_Node[0].lo[0] packetDropNoCarrier:count 0
attr interpolationmode none
attr recordingmode count
attr source packetDropReasonIsNoCarrier(packetDropped)
attr title "packet drops: no carrier, count"
scalar WSN_Network.Sensor_Node[0].lo[0] packetDropNoCarrier:sum(packetBytes) 0
attr interpolationmode none
attr recordingmode sum(packetBytes)
attr source packetDropReasonIsNoCarrier(packetDropped)
attr title "packet drops: no carrier, sum(packetBytes)"
par WSN_Network.Sensor_Node[0].wlan[0].radioIn.channel typename "\"ned.IdealChannel\""
par WSN_Network.Sensor_Node[0].wlan[0].llc.upperLayerOut.channel typename "\"ned.IdealChannel\""
par WSN_Network.Sensor_Node[0].wlan[0].upperLayerIn.channel typename "\"ned.IdealChannel\""
par WSN_Network.Sensor_Node[0].wlan[0].mib typename "\"inet.linklayer.ieee80211.mib.Ieee80211Mib\""
par WSN_Network.Sensor_Node[0].wlan[0].llc typename "\"inet.linklayer.ieee80211.llc.Ieee80211LlcLpd\""
par WSN_Network.Sensor_Node[0].wlan[0].llc registerProtocol false
par WSN_Network.Sensor_Node[0].wlan[0].mgmt typename "\"inet.linklayer.ieee80211.mgmt.Ieee80211MgmtAdhoc\""
par WSN_Network.Sensor_Node[0].wlan[0].mgmt mibModule "\"WSN_Network.Sensor_Node[0].wlan[0].mib\""
par WSN_Network.Sensor_Node[0].wlan[0].mgmt macModule "\"WSN_Network.Sensor_Node[0].wlan[0].mac\""
par WSN_Network.Sensor_Node[0].wlan[0].mgmt interfaceTableModule "\"WSN_Network.Sensor_Node[0].interfaceTable\""
par WSN_Network.Sensor_Node[0].wlan[0].mac.dcf.channelAccess.pendingQueue typename "\"inet.linklayer.ieee80211.mac.queue.PendingQueue\""
par WSN_Network.Sensor_Node[0].wlan[0].mac.dcf.channelAccess.pendingQueue displayStringTextFormat "\"contains %p pk (%l) pushed %u\\npulled %o removed %r dropped %d\""
par WSN_Network.Sensor_Node[0].wlan[0].mac.dcf.channelAccess.pendingQueue packetCapacity 100
par WSN_Network.Sensor_Node[0].wlan[0].mac.dcf.channelAccess.pendingQueue dataCapacity -1b
attr unit b
par WSN_Network.Sensor_Node[0].wlan[0].mac.dcf.channelAccess.pendingQueue dropperClass "\"inet::queueing::PacketAtCollectionEndDropper\""
par WSN_Network.Sensor_Node[0].wlan[0].mac.dcf.channelAccess.pendingQueue comparatorClass "\"inet::ieee80211::MgmtOverDataComparator\""
par WSN_Network.Sensor_Node[0].wlan[0].mac.dcf.channelAccess.pendingQueue bufferModule "\"\""
scalar WSN_Network.Sensor_Node[0].wlan[0].mac.dcf.channelAccess.pendingQueue queueLength:last 0
attr autoWarmupFilter false
attr interpolationmode sample-hold
attr recordingmode last
attr source "warmup(atomic(constant0(packetPushEnded) + count(packetPushStarted) - count(packetPulled) - count(packetRemoved) - count(packetDropped)))"
attr title "queue length, last"
attr unit pk
scalar WSN_Network.Sensor_Node[0].wlan[0].mac.dcf.channelAccess.pendingQueue queueLength:max 1
attr autoWarmupFilter false
attr interpolationmode sample-hold
attr recordingmode max
attr source "warmup(atomic(constant0(packetPushEnded) + count(packetPushStarted) - count(packetPulled) - count(packetRemoved) - count(packetDropped)))"
attr title "queue length, max"
attr unit pk
scalar WSN_Network.Sensor_Node[0].wlan[0].mac.dcf.channelAccess.pendingQueue queueLength:timeavg 0.00025473684210526
attr autoWarmupFilter false
attr interpolationmode sample-hold
attr recordingmode timeavg
attr source "warmup(atomic(constant0(packetPushEnded) + count(packetPushStarted) - count(packetPulled) - count(packetRemoved) - count(packetDropped)))"
attr title "queue length, timeavg"
attr unit pk
scalar WSN_Network.Sensor_Node[0].wlan[0].mac.dcf.channelAccess.pendingQueue queueBitLength:last 0
attr autoWarmupFilter false
attr interpolationmode sample-hold
attr recordingmode last
attr source "warmup(atomic(constant0(packetPushEnded) + sum(packetLength(packetPushStarted)) - sum(packetLength(packetPulled)) - sum(packetLength(packetRemoved)) - sum(packetLength(packetDropped))))"
attr title "queue bit length, last"
attr unit b
scalar WSN_Network.Sensor_Node[0].wlan[0].mac.dcf.channelAccess.pendingQueue queueBitLength:max 960
attr autoWarmupFilter false
attr interpolationmode sample-hold
attr recordingmode max
attr source "warmup(atomic(constant0(packetPushEnded) + sum(packetLength(packetPushStarted)) - sum(packetLength(packetPulled)) - sum(packetLength(packetRemoved)) - sum(packetLength(packetDropped))))"
attr title "queue bit length, max"
attr unit b
scalar WSN_Network.Sensor_Node[0].wlan[0].mac.dcf.channelAccess.pendingQueue queueBitLength:timeavg 0.17145263157895
attr autoWarmupFilter false
attr interpolationmode sample-hold
attr recordingmode timeavg
attr source "warmup(atomic(constant0(packetPushEnded) + sum(packetLength(packetPushStarted)) - sum(packetLength(packetPulled)) - sum(packetLength(packetRemoved)) - sum(packetLength(packetDropped))))"
attr title "queue bit length, timeavg"
attr unit b
statistic WSN_Network.Sensor_Node[0].wlan[0].mac.dcf.channelAccess.pendingQueue queueingTime:histogram
field count 2
field mean 0.000242
field stddev 9.616652224137e-05
field min 0.000174
field max 0.00031
field sum 0.000484
field sqrsum 1.26376e-07
attr interpolationmode none
attr recordingmode histogram
attr source queueingTime(packetPulled)
attr title "queueing times"
attr unit s
bin	-inf	0
bin	0.000138	0
bin	0.00014	0
bin	0.000142	0
bin	0.000144	0
bin	0.000146	0
bin	0.000148	0
bin	0.00015	0
bin	0.000152	0
bin	0.000154	0
bin	0.000156	0
bin	0.000158	0
bin	0.00016	0
bin	0.000162	0
bin	0.000164	0
bin	0.000166	0
bin	0.000168	0
bin	0.00017	0
bin	0.000172	1
bin	0.000174	0
bin	0.000176	0
bin	0.000178	0
bin	0.00018	0
bin	0.000182	0
bin	0.000184	0
bin	0.000186	0
bin	0.000188	0
bin	0.00019	0
bin	0.000192	0
bin	0.000194	0
bin	0.000196	0
bin	0.000198	0
bin	0.0002	0
bin	0.000202	0
bin	0.000204	0
bin	0.000206	0
bin	0.000208	0
bin	0.00021	0
bin	0.000212	0
bin	0.000214	0
bin	0.000216	0
bin	0.000218	0
bin	0.00022	0
bin	0.000222	0
bin	0.000224	0
bin	0.000226	0
bin	0.000228	0
bin	0.00023	0
bin	0.000232	0
bin	0.000234	0
bin	0.000236	0
bin	0.000238	0
bin	0.00024	0
bin	0.000242	0
bin	0.000244	0
bin	0.000246	0
bin	0.000248	0
bin	0.00025	0
bin	0.000252	0
bin	0.000254	0
bin	0.000256	0
bin	0.000258	0
bin	0.00026	0
bin	0.000262	0
bin	0.000264	0
bin	0.000266	0
bin	0.000268	0
bin	0.00027	0
bin	0.000272	0
bin	0.000274	0
bin	0.000276	0
bin	0.000278	0
bin	0.00028	0
bin	0.000282	0
bin	0.000284	0
bin	0.000286	0
bin	0.000288	0
bin	0.00029	0
bin	0.000292	0
bin	0.000294	0
bin	0.000296	0
bin	0.000298	0
bin	0.0003	0
bin	0.000302	0
bin	0.000304	0
bin	0.000306	0
bin	0.000308	1
bin	0.00031	0
bin	0.000312	0
bin	0.000314	0
bin	0.000316	0
bin	0.000318	0
bin	0.00032	0
bin	0.000322	0
bin	0.000324	0
bin	0.000326	0
bin	0.000328	0
bin	0.00033	0
bin	0.000332	0
bin	0.000334	0
bin	0.000336	0
bin	0.000338	0
bin	0.00034	0
bin	0.000342	0
bin	0.000344	0
scalar WSN_Network.Sensor_Node[0].wlan[0].mac.dcf.channelAccess.pendingQueue outgoingPackets:count 2
attr recordingmode count
attr source packetPulled
attr title "outgoing packets, count"
attr unit pk
scalar WSN_Network.Sensor_Node[0].wlan[0].mac.dcf.channelAccess.pendingQueue outgoingPacketLengths:sum 1472
attr interpolationmode none
attr recordingmode sum
attr source packetLength(packetPulled)
attr title "outgoing packet lengths, sum"
attr unit b
statistic WSN_Network.Sensor_Node[0].wlan[0].mac.dcf.channelAccess.pendingQueue outgoingPacketLengths:histogram
field count 2
field mean 736
field stddev 316.78383797157
field min 512
field max 960
field sum 1472
field sqrsum 1183744
attr interpolationmode none
attr recordingmode histogram
attr source packetLength(packetPulled)
attr title "outgoing packet lengths"
attr unit b
bin	-inf	0
bin	400	0
bin	410	0
bin	420	0
bin	430	0
bin	440	0
bin	450	0
bin	460	0
bin	470	0
bin	480	0
bin	490	0
bin	500	0
bin	510	1
bin	520	0
bin	530	0
bin	540	0
bin	550	0
bin	560	0
bin	570	0
bin	580	0
bin	590	0
bin	600	0
bin	610	0
bin	620	0
bin	630	0
bin	640	0
bin	650	0
bin	660	0
bin	670	0
bin	680	0
bin	690	0
bin	700	0
bin	710	0
bin	720	0
bin	730	0
bin	740	0
bin	750	0
bin	760	0
bin	770	0
bin	780	0
bin	790	0
bin	800	0
bin	810	0
bin	820	0
bin	830	0
bin	840	0
bin	850	0
bin	860	0
bin	870	0
bin	880	0
bin	890	0
bin	900	0
bin	910	0
bin	920	0
bin	930	0
bin	940	0
bin	950	0
bin	960	1
bin	970	0
bin	980	0
bin	990	0
bin	1000	0
bin	1010	0
bin	1020	0
bin	1030	0
bin	1040	0
bin	1050	0
bin	1060	0
bin	1070	0
bin	1080	0
statistic WSN_Network.Sensor_Node[0].wlan[0].mac.dcf.channelAccess.pendingQueue flowQueueingTime:histogram
field count 0
field mean nan
field stddev nan
field min nan
field max nan
field sum 0
field sqrsum 0
attr interpolationmode none
attr recordingmode histogram
attr source queueingTime(demuxFlow(packetPulled))
attr title "flow queueing times"
attr unit s
bin	-inf	0
bin	0	0
bin	1	0
scalar WSN_Network.Sensor_Node[0].wlan[0].mac.dcf.channelAccess.pendingQueue incomingPackets:count 2
attr recordingmode count
attr source packetPushStarted
attr title "incoming packets, count"
attr unit pk
scalar WSN_Network.Sensor_Node[0].wlan[0].mac.dcf.channelAccess.pendingQueue incomingPacketLengths:sum 1472
attr interpolationmode none
attr recordingmode sum
attr source packetLength(packetPushStarted)
attr title "incoming packet lengths, sum"
attr unit b
statistic WSN_Network.Sensor_Node[0].wlan[0].mac.dcf.channelAccess.pendingQueue incomingPacketLengths:histogram
field count 2
field mean 736
field stddev 316.78383797157
field min 512
field max 960
field sum 1472
field sqrsum 1183744
attr interpolationmode none
attr recordingmode histogram
attr source packetLength(packetPushStarted)
attr title "incoming packet lengths"
attr unit b
bin	-inf	0
bin	400	0
bin	410	0
bin	420	0
bin	430	0
bin	440	0
bin	450	0
bin	460	0
bin	470	0
bin	480	0
bin	490	0
bin	500	0
bin	510	1
bin	520	0
bin	530	0
bin	540	0
bin	550	0
bin	560	0
bin	570	0
bin	580	0
bin	590	0
bin	600	0
bin	610	0
bin	620	0
bin	630	0
bin	640	0
bin	650	0
bin	660	0
bin	670	0
bin	680	0
bin	690	0
bin	700	0
bin	710	0
bin	720	0
bin	730	0
bin	740	0
bin	750	0
bin	760	0
bin	770	0
bin	780	0
bin	790	0
bin	800	0
bin	810	0
bin	820	0
bin	830	0
bin	840	0
bin	850	0
bin	860	0
bin	870	0
bin	880	0
bin	890	0
bin	900	0
bin	910	0
bin	920	0
bin	930	0
bin	940	0
bin	950	0
bin	960	1
bin	970	0
bin	980	0
bin	990	0
bin	1000	0
bin	1010	0
bin	1020	0
bin	1030	0
bin	1040	0
bin	1050	0
bin	1060	0
bin	1070	0
bin	1080	0
scalar WSN_Network.Sensor_Node[0].wlan[0].mac.dcf.channelAccess.pendingQueue droppedPacketsQueueOverflow:count 0
attr interpolationmode none
attr recordingmode count
attr source packetDropReasonIsQueueOverflow(packetDropped)
attr title "dropped packets: queue overflow, count"
attr unit pk
scalar WSN_Network.Sensor_Node[0].wlan[0].mac.dcf.channelAccess.pendingQueue droppedPacketLengthsQueueOverflow:sum 0
attr interpolationmode none
attr recordingmode sum
attr source packetLength(packetDropReasonIsQueueOverflow(packetDropped))
attr title "dropped packet lengths: queue overflow, sum"
attr unit b
par WSN_Network.Sensor_Node[0].wlan[0].mac.dcf.channelAccess.inProgressFrames typename "\"inet.linklayer.ieee80211.mac.queue.InProgressFrames\""
par WSN_Network.Sensor_Node[0].wlan[0].mac.dcf.channelAccess.inProgressFrames pendingQueueModule "\"^.pendingQueue\""
par WSN_Network.Sensor_Node[0].wlan[0].mac.dcf.channelAccess.inProgressFrames originatorMacDataServiceModule "\"^.^.originatorMacDataService\""
par WSN_Network.Sensor_Node[0].wlan[0].mac.dcf.channelAccess.inProgressFrames ackHandlerModule "\"^.^.ackHandler\""
statistic WSN_Network.Sensor_Node[0].wlan[0].mac.dcf.channelAccess.inProgressFrames queueingTime:histogram
field count 2
field mean 0.0001060218425
field stddev 1.4142095318644e-05
field min 9.6021871e-05
field max 0.000116021814
field sum 0.000212043685
field sqrsum 2.2681261034191e-08
attr interpolationmode none
attr recordingmode histogram
attr source queueingTime(packetDequeued)
attr title "queueing times"
bin	-inf	0
bin	9.1e-05	0
bin	9.15e-05	0
bin	9.2e-05	0
bin	9.25e-05	0
bin	9.3e-05	0
bin	9.35e-05	0
bin	9.4e-05	0
bin	9.45e-05	0
bin	9.5e-05	0
bin	9.55e-05	0
bin	9.6e-05	1
bin	9.65e-05	0
bin	9.7e-05	0
bin	9.75e-05	0
bin	9.8e-05	0
bin	9.85e-05	0
bin	9.9e-05	0
bin	9.95e-05	0
bin	0.0001	0
bin	0.0001005	0
bin	0.000101	0
bin	0.0001015	0
bin	0.000102	0
bin	0.0001025	0
bin	0.000103	0
bin	0.0001035	0
bin	0.000104	0
bin	0.0001045	0
bin	0.000105	0
bin	0.0001055	0
bin	0.000106	0
bin	0.0001065	0
bin	0.000107	0
bin	0.0001075	0
bin	0.000108	0
bin	0.0001085	0
bin	0.000109	0
bin	0.0001095	0
bin	0.00011	0
bin	0.0001105	0
bin	0.000111	0
bin	0.0001115	0
bin	0.000112	0
bin	0.0001125	0
bin	0.000113	0
bin	0.0001135	0
bin	0.000114	0
bin	0.0001145	0
bin	0.000115	0
bin	0.0001155	0
bin	0.000116	1
bin	0.0001165	0
bin	0.000117	0
bin	0.0001175	0
bin	0.000118	0
bin	0.0001185	0
bin	0.000119	0
bin	0.0001195	0
bin	0.00012	0
bin	0.0001205	0
bin	0.000121	0
bin	0.0001215	0
scalar WSN_Network.Sensor_Node[0].wlan[0].mac.dcf.channelAccess.inProgressFrames queueLength:max 1
attr autoWarmupFilter false
attr interpolationmode sample-hold
attr recordingmode max
attr source "warmup(count(packetEnqueued) - count(packetDequeued))"
attr title "queue length, max"
scalar WSN_Network.Sensor_Node[0].wlan[0].mac.dcf.channelAccess.inProgressFrames queueLength:timeavg 0.00011160193947368
attr autoWarmupFilter false
attr interpolationmode sample-hold
attr recordingmode timeavg
attr source "warmup(count(packetEnqueued) - count(packetDequeued))"
attr title "queue length, timeavg"
par WSN_Network.Sensor_Node[0].wlan[0].mac.dcf.channelAccess.contention typename "\"inet.linklayer.ieee80211.mac.contention.Contention\""
par WSN_Network.Sensor_Node[0].wlan[0].mac.dcf.channelAccess.contention initialChannelBusy true
par WSN_Network.Sensor_Node[0].wlan[0].mac.dcf.channelAccess.contention backoffOptimization true
scalar WSN_Network.Sensor_Node[0].wlan[0].mac.dcf.channelAccess.contention stateChanged:count 30
attr enum IDLE,DEFER,IFS_AND_BACKOFF
attr interpolationmode none
attr recordingmode count
attr title "contention state changed, count"
attr type enum
scalar WSN_Network.Sensor_Node[0].wlan[0].mac.dcf.channelAccess.contention channelAccessGranted:count 2
attr recordingmode count
attr title "channel access granted, count"
par WSN_Network.Sensor_Node[0].wlan[0].mac.dcf.channelAccess typename "\"inet.linklayer.ieee80211.mac.channelaccess.Dcaf\""
par WSN_Network.Sensor_Node[0].wlan[0].mac.dcf.channelAccess difsn -1
par WSN_Network.Sensor_Node[0].wlan[0].mac.dcf.channelAccess cwMin -1
par WSN_Network.Sensor_Node[0].wlan[0].mac.dcf.channelAccess cwMax -1
par WSN_Network.Sensor_Node[0].wlan[0].mac.dcf.channelAccess rxModule "\"^.^.rx\""
scalar WSN_Network.Sensor_Node[0].wlan[0].mac.dcf.channelAccess channelOwnershipChanged:count 4
attr interpolationmode sample-hold
attr recordingmode count
attr title "channel ownership, count"
par WSN_Network.Sensor_Node[0].wlan[0].mac.dcf.originatorMacDataService.fragmentationPolicy typename "\"inet.linklayer.ieee80211.mac.fragmentation.BasicFragmentationPolicy\""
par WSN_Network.Sensor_Node[0].wlan[0].mac.dcf.originatorMacDataService.fragmentationPolicy fragmentationThreshold 1500B
attr unit B
par WSN_Network.Sensor_Node[0].wlan[0].mac.dcf.originatorMacDataService typename "\"inet.linklayer.ieee80211.mac.originator.OriginatorMacDataService\""
scalar WSN_Network.Sensor_Node[0].wlan[0].mac.dcf.originatorMacDataService packetAggregated:count 0
attr recordingmode count
attr title "packets aggregated, count"
scalar WSN_Network.Sensor_Node[0].wlan[0].mac.dcf.originatorMacDataService packetFragmented:count 0
attr recordingmode count
attr title "packets fragmented, count"
par WSN_Network.Sensor_Node[0].wlan[0].mac.dcf.recipientMacDataService typename "\"inet.linklayer.ieee80211.mac.recipient.RecipientMacDataService\""
scalar WSN_Network.Sensor_Node[0].wlan[0].mac.dcf.recipientMacDataService packetDropDuplicateDetected:count 0
attr interpolationmode none
attr recordingmode count
attr source packetDropReasonIsDuplicateDetected(packetDropped)
attr title "packet drops: duplicate detected, count"
scalar WSN_Network.Sensor_Node[0].wlan[0].mac.dcf.recipientMacDataService packetDropDuplicateDetected:sum(packetBytes) 0
attr interpolationmode none
attr recordingmode sum(packetBytes)
attr source packetDropReasonIsDuplicateDetected(packetDropped)
attr title "packet drops: duplicate detected, sum(packetBytes)"
scalar WSN_Network.Sensor_Node[0].wlan[0].mac.dcf.recipientMacDataService packetDeaggregated:count 0
attr recordingmode count
attr title "packets deaggregated, count"
scalar WSN_Network.Sensor_Node[0].wlan[0].mac.dcf.recipientMacDataService packetDefragmented:count 2
attr recordingmode count
attr title "packets defragmented, count"
par WSN_Network.Sensor_Node[0].wlan[0].mac.dcf.rateSelection typename "\"inet.linklayer.ieee80211.mac.rateselection.RateSelection\""
par WSN_Network.Sensor_Node[0].wlan[0].mac.dcf.rateSelection rateControlModule "\"^.rateControl\""
par WSN_Network.Sensor_Node[0].wlan[0].mac.dcf.rateSelection multicastFrameBitrate -1bps
attr unit bps
par WSN_Network.Sensor_Node[0].wlan[0].mac.dcf.rateSelection responseAckFrameBitrate -1bps
attr unit bps
par WSN_Network.Sensor_Node[0].wlan[0].mac.dcf.rateSelection responseCtsFrameBitrate -1bps
attr unit bps
par WSN_Network.Sensor_Node[0].wlan[0].mac.dcf.rateSelection dataFrameBitrate -1bps
attr unit bps
par WSN_Network.Sensor_Node[0].wlan[0].mac.dcf.rateSelection dataFrameBandwidth "nan Hz"
attr unit Hz
par WSN_Network.Sensor_Node[0].wlan[0].mac.dcf.rateSelection dataFrameNumSpatialStreams -1
par WSN_Network.Sensor_Node[0].wlan[0].mac.dcf.rateSelection mgmtFrameBitrate -1bps
attr unit bps
par WSN_Network.Sensor_Node[0].wlan[0].mac.dcf.rateSelection controlFrameBitrate -1bps
attr unit bps
par WSN_Network.Sensor_Node[0].wlan[0].mac.dcf.recoveryProcedure typename "\"inet.linklayer.ieee80211.mac.originator.NonQosRecoveryProcedure\""
par WSN_Network.Sensor_Node[0].wlan[0].mac.dcf.recoveryProcedure cwCalculatorModule "\"^.channelAccess\""
par WSN_Network.Sensor_Node[0].wlan[0].mac.dcf.recoveryProcedure rtsPolicyModule "\"^.rtsPolicy\""
par WSN_Network.Sensor_Node[0].wlan[0].mac.dcf.recoveryProcedure shortRetryLimit 7
par WSN_Network.Sensor_Node[0].wlan[0].mac.dcf.recoveryProcedure longRetryLimit 4
scalar WSN_Network.Sensor_Node[0].wlan[0].mac.dcf.recoveryProcedure retryLimitReached:count 0
attr recordingmode count
attr title "retry limit reached, count"
par WSN_Network.Sensor_Node[0].wlan[0].mac.dcf.originatorProtectionMechanism typename "\"inet.linklayer.ieee80211.mac.protectionmechanism.OriginatorProtectionMechanism\""
par WSN_Network.Sensor_Node[0].wlan[0].mac.dcf.originatorProtectionMechanism rateSelectionModule "\"^.rateSelection\""
par WSN_Network.Sensor_Node[0].wlan[0].mac.dcf.ackHandler typename "\"inet.linklayer.ieee80211.mac.originator.AckHandler\""
par WSN_Network.Sensor_Node[0].wlan[0].mac.dcf.originatorAckPolicy typename "\"inet.linklayer.ieee80211.mac.originator.OriginatorAckPolicy\""
par WSN_Network.Sensor_Node[0].wlan[0].mac.dcf.originatorAckPolicy rateSelectionModule "\"^.rateSelection\""
par WSN_Network.Sensor_Node[0].wlan[0].mac.dcf.originatorAckPolicy ackTimeout -1s
attr unit s
par WSN_Network.Sensor_Node[0].wlan[0].mac.dcf.recipientAckPolicy typename "\"inet.linklayer.ieee80211.mac.recipient.RecipientAckPolicy\""
par WSN_Network.Sensor_Node[0].wlan[0].mac.dcf.recipientAckPolicy rateSelectionModule "\"^.rateSelection\""
par WSN_Network.Sensor_Node[0].wlan[0].mac.dcf.rtsPolicy typename "\"inet.linklayer.ieee80211.mac.originator.RtsPolicy\""
par WSN_Network.Sensor_Node[0].wlan[0].mac.dcf.rtsPolicy rateSelectionModule "\"^.rateSelection\""
par WSN_Network.Sensor_Node[0].wlan[0].mac.dcf.rtsPolicy ctsTimeout -1s
attr unit s
par WSN_Network.Sensor_Node[0].wlan[0].mac.dcf.rtsPolicy rtsThreshold 2346B
attr unit B
par WSN_Network.Sensor_Node[0].wlan[0].mac.dcf.ctsPolicy typename "\"inet.linklayer.ieee80211.mac.recipient.CtsPolicy\""
par WSN_Network.Sensor_Node[0].wlan[0].mac.dcf.ctsPolicy rxModule "\"^.^.rx\""
par WSN_Network.Sensor_Node[0].wlan[0].mac.dcf.ctsPolicy rateSelectionModule "\"^.rateSelection\""
par WSN_Network.Sensor_Node[0].wlan[0].mac.dcf typename "\"inet.linklayer.ieee80211.mac.coordinationfunction.Dcf\""
par WSN_Network.Sensor_Node[0].wlan[0].mac.dcf rxModule "\"^.rx\""
par WSN_Network.Sensor_Node[0].wlan[0].mac.dcf txModule "\"^.tx\""
scalar WSN_Network.Sensor_Node[0].wlan[0].mac.dcf packetReceivedFromPeer:count 4
attr interpolationmode none
attr recordingmode count
attr title "packets received, count"
scalar WSN_Network.Sensor_Node[0].wlan[0].mac.dcf packetReceivedFromPeer:sum(packetBytes) 212
attr interpolationmode none
attr recordingmode sum(packetBytes)
attr title "packets received, sum(packetBytes)"
scalar WSN_Network.Sensor_Node[0].wlan[0].mac.dcf packetReceivedFromPeerUnicast:count 3
attr interpolationmode none
attr recordingmode count
attr source ieee80211Unicast(packetReceivedFromPeer)
attr title "packets received: unicast, count"
scalar WSN_Network.Sensor_Node[0].wlan[0].mac.dcf packetReceivedFromPeerUnicast:sum(packetBytes) 148
attr interpolationmode none
attr recordingmode sum(packetBytes)
attr source ieee80211Unicast(packetReceivedFromPeer)
attr title "packets received: unicast, sum(packetBytes)"
scalar WSN_Network.Sensor_Node[0].wlan[0].mac.dcf packetReceivedFromPeerMulticast:count 1
attr interpolationmode none
attr recordingmode count
attr source ieee80211Multicast(packetReceivedFromPeer)
attr title "packets received: multicast, count"
scalar WSN_Network.Sensor_Node[0].wlan[0].mac.dcf packetReceivedFromPeerMulticast:sum(packetBytes) 64
attr interpolationmode none
attr recordingmode sum(packetBytes)
attr source ieee80211Multicast(packetReceivedFromPeer)
attr title "packets received: multicast, sum(packetBytes)"
scalar WSN_Network.Sensor_Node[0].wlan[0].mac.dcf packetReceivedFromPeerBroadcast:count 1
attr interpolationmode none
attr recordingmode count
attr source ieee80211Broadcast(packetReceivedFromPeer)
attr title "packets received: broadcast, count"
scalar WSN_Network.Sensor_Node[0].wlan[0].mac.dcf packetReceivedFromPeerBroadcast:sum(packetBytes) 64
attr interpolationmode none
attr recordingmode sum(packetBytes)
attr source ieee80211Broadcast(packetReceivedFromPeer)
attr title "packets received: broadcast, sum(packetBytes)"
scalar WSN_Network.Sensor_Node[0].wlan[0].mac.dcf packetReceivedFromPeerWithRetry:count 0
attr interpolationmode none
attr recordingmode count
attr source ieee80211Retry(packetReceivedFromPeer)
attr title "packets received: with retry, count"
scalar WSN_Network.Sensor_Node[0].wlan[0].mac.dcf packetReceivedFromPeerWithRetry:sum(packetBytes) 0
attr interpolationmode none
attr recordingmode sum(packetBytes)
attr source ieee80211Retry(packetReceivedFromPeer)
attr title "packets received: with retry, sum(packetBytes)"
scalar WSN_Network.Sensor_Node[0].wlan[0].mac.dcf packetReceivedFromPeerWithoutRetry:count 4
attr interpolationmode none
attr recordingmode count
attr source ieee80211NotRetry(packetReceivedFromPeer)
attr title "packets received: without retry, count"
scalar WSN_Network.Sensor_Node[0].wlan[0].mac.dcf packetReceivedFromPeerWithoutRetry:sum(packetBytes) 212
attr interpolationmode none
attr recordingmode sum(packetBytes)
attr source ieee80211NotRetry(packetReceivedFromPeer)
attr title "packets received: without retry, sum(packetBytes)"
scalar WSN_Network.Sensor_Node[0].wlan[0].mac.dcf packetSentToPeer:count 3
attr interpolationmode none
attr recordingmode count
attr title "packets sent, count"
scalar WSN_Network.Sensor_Node[0].wlan[0].mac.dcf packetSentToPeer:sum(packetBytes) 198
attr interpolationmode none
attr recordingmode sum(packetBytes)
attr title "packets sent, sum(packetBytes)"
scalar WSN_Network.Sensor_Node[0].wlan[0].mac.dcf packetSentToPeerUnicast:count 3
attr interpolationmode none
attr recordingmode count
attr source ieee80211Unicast(packetSentToPeer)
attr title "packets sent: unicast, count"
scalar WSN_Network.Sensor_Node[0].wlan[0].mac.dcf packetSentToPeerUnicast:sum(packetBytes) 198
attr interpolationmode none
attr recordingmode sum(packetBytes)
attr source ieee80211Unicast(packetSentToPeer)
attr title "packets sent: unicast, sum(packetBytes)"
scalar WSN_Network.Sensor_Node[0].wlan[0].mac.dcf packetSentToPeerMulticast:count 0
attr interpolationmode none
attr recordingmode count
attr source ieee80211Multicast(packetSentToPeer)
attr title "packets sent: multicast, count"
scalar WSN_Network.Sensor_Node[0].wlan[0].mac.dcf packetSentToPeerMulticast:sum(packetBytes) 0
attr interpolationmode none
attr recordingmode sum(packetBytes)
attr source ieee80211Multicast(packetSentToPeer)
attr title "packets sent: multicast, sum(packetBytes)"
scalar WSN_Network.Sensor_Node[0].wlan[0].mac.dcf packetSentToPeerBroadcast:count 0
attr interpolationmode none
attr recordingmode count
attr source ieee80211Broadcast(packetSentToPeer)
attr title "packets sent: broadcast , count"
scalar WSN_Network.Sensor_Node[0].wlan[0].mac.dcf packetSentToPeerBroadcast:sum(packetBytes) 0
attr interpolationmode none
attr recordingmode sum(packetBytes)
attr source ieee80211Broadcast(packetSentToPeer)
attr title "packets sent: broadcast , sum(packetBytes)"
scalar WSN_Network.Sensor_Node[0].wlan[0].mac.dcf packetSentToPeerWithRetry:count 0
attr interpolationmode none
attr recordingmode count
attr source ieee80211Retry(packetSentToPeer)
attr title "packets sent: with retry, count"
scalar WSN_Network.Sensor_Node[0].wlan[0].mac.dcf packetSentToPeerWithRetry:sum(packetBytes) 0
attr interpolationmode none
attr recordingmode sum(packetBytes)
attr source ieee80211Retry(packetSentToPeer)
attr title "packets sent: with retry, sum(packetBytes)"
scalar WSN_Network.Sensor_Node[0].wlan[0].mac.dcf packetSentToPeerWithoutRetry:count 3
attr interpolationmode none
attr recordingmode count
attr source ieee80211NotRetry(packetSentToPeer)
attr title "packets sent: without retry, count"
scalar WSN_Network.Sensor_Node[0].wlan[0].mac.dcf packetSentToPeerWithoutRetry:sum(packetBytes) 198
attr interpolationmode none
attr recordingmode sum(packetBytes)
attr source ieee80211NotRetry(packetSentToPeer)
attr title "packets sent: without retry, sum(packetBytes)"
scalar WSN_Network.Sensor_Node[0].wlan[0].mac.dcf packetDrop:count 0
attr interpolationmode none
attr recordingmode count
attr source packetDropped
attr title "packet drops, count"
scalar WSN_Network.Sensor_Node[0].wlan[0].mac.dcf packetDrop:sum(packetBytes) 0
attr interpolationmode none
attr recordingmode sum(packetBytes)
attr source packetDropped
attr title "packet drops, sum(packetBytes)"
scalar WSN_Network.Sensor_Node[0].wlan[0].mac.dcf packetDropNotAddressedToUs:count 0
attr interpolationmode none
attr recordingmode count
attr source packetDropReasonIsNotAddressedToUs(packetDropped)
attr title "packet drops: not addressed to us, count"
scalar WSN_Network.Sensor_Node[0].wlan[0].mac.dcf packetDropNotAddressedToUs:sum(packetBytes) 0
attr interpolationmode none
attr recordingmode sum(packetBytes)
attr source packetDropReasonIsNotAddressedToUs(packetDropped)
attr title "packet drops: not addressed to us, sum(packetBytes)"
scalar WSN_Network.Sensor_Node[0].wlan[0].mac.dcf packetDropQueueOverflow:count 0
attr interpolationmode none
attr recordingmode count
attr source packetDropReasonIsQueueOverflow(packetDropped)
attr title "packet drops: queue overflow, count"
scalar WSN_Network.Sensor_Node[0].wlan[0].mac.dcf packetDropQueueOverflow:sum(packetBytes) 0
attr interpolationmode none
attr recordingmode sum(packetBytes)
attr source packetDropReasonIsQueueOverflow(packetDropped)
attr title "packet drops: queue overflow, sum(packetBytes)"
scalar WSN_Network.Sensor_Node[0].wlan[0].mac.dcf packetDropRetryLimitReached:count 0
attr interpolationmode none
attr recordingmode count
attr source packetDropReasonIsRetryLimitReached(packetDropped)
attr title "packet drops: retry limit reached, count"
scalar WSN_Network.Sensor_Node[0].wlan[0].mac.dcf packetDropRetryLimitReached:sum(packetBytes) 0
attr interpolationmode none
attr recordingmode sum(packetBytes)
attr source packetDropReasonIsRetryLimitReached(packetDropped)
attr title "packet drops: retry limit reached, sum(packetBytes)"
scalar WSN_Network.Sensor_Node[0].wlan[0].mac.dcf linkBroken:count 0
attr interpolationmode none
attr recordingmode count
attr title "link breaks, count"
scalar WSN_Network.Sensor_Node[0].wlan[0].mac.dcf frameSequenceFinished:count 2
attr recordingmode count
attr title "finished frame sequences, count"
statistic WSN_Network.Sensor_Node[0].wlan[0].mac.dcf frameSequenceDuration:histogram
field count 2
field mean 0.0001060218425
field stddev 1.4142095318644e-05
field min 9.6021871e-05
field max 0.000116021814
field sum 0.000212043685
field sqrsum 2.2681261034191e-08
attr recordingmode histogram
attr source frameSequenceDuration(frameSequenceFinished)
attr title "frame sequence durations"
bin	-inf	0
bin	9.1e-05	0
bin	9.15e-05	0
bin	9.2e-05	0
bin	9.25e-05	0
bin	9.3e-05	0
bin	9.35e-05	0
bin	9.4e-05	0
bin	9.45e-05	0
bin	9.5e-05	0
bin	9.55e-05	0
bin	9.6e-05	1
bin	9.65e-05	0
bin	9.7e-05	0
bin	9.75e-05	0
bin	9.8e-05	0
bin	9.85e-05	0
bin	9.9e-05	0
bin	9.95e-05	0
bin	0.0001	0
bin	0.0001005	0
bin	0.000101	0
bin	0.0001015	0
bin	0.000102	0
bin	0.0001025	0
bin	0.000103	0
bin	0.0001035	0
bin	0.000104	0
bin	0.0001045	0
bin	0.000105	0
bin	0.0001055	0
bin	0.000106	0
bin	0.0001065	0
bin	0.000107	0
bin	0.0001075	0
bin	0.000108	0
bin	0.0001085	0
bin	0.000109	0
bin	0.0001095	0
bin	0.00011	0
bin	0.0001105	0
bin	0.000111	0
bin	0.0001115	0
bin	0.000112	0
bin	0.0001125	0
bin	0.000113	0
bin	0.0001135	0
bin	0.000114	0
bin	0.0001145	0
bin	0.000115	0
bin	0.0001155	0
bin	0.000116	1
bin	0.0001165	0
bin	0.000117	0
bin	0.0001175	0
bin	0.000118	0
bin	0.0001185	0
bin	0.000119	0
bin	0.0001195	0
bin	0.00012	0
bin	0.0001205	0
bin	0.000121	0
bin	0.0001215	0
statistic WSN_Network.Sensor_Node[0].wlan[0].mac.dcf frameSequenceNumPackets:histogram
field count 2
field mean 2
field stddev 0
field min 2
field max 2
field sum 4
field sqrsum 8
attr recordingmode histogram
attr source frameSequenceNumPackets(frameSequenceFinished)
attr title "frame sequences: number of packets"
bin	-inf	0
bin	1	0
bin	2	2
bin	3	0
par WSN_Network.Sensor_Node[0].wlan[0].mac.ds typename "\"inet.linklayer.ieee80211.mac.Ds\""
par WSN_Network.Sensor_Node[0].wlan[0].mac.ds mibModule "\"WSN_Network.Sensor_Node[0].wlan[0].mib\""
par WSN_Network.Sensor_Node[0].wlan[0].mac.rx typename "\"inet.linklayer.ieee80211.mac.Rx\""
par WSN_Network.Sensor_Node[0].wlan[0].mac.tx typename "\"inet.linklayer.ieee80211.mac.Tx\""
par WSN_Network.Sensor_Node[0].wlan[0].mac.tx rxModule "\"^.rx\""
par WSN_Network.Sensor_Node[0].wlan[0].mac typename "\"inet.linklayer.ieee80211.mac.Ieee80211Mac\""
par WSN_Network.Sensor_Node[0].wlan[0].mac interfaceTableModule "\"WSN_Network.Sensor_Node[0].interfaceTable\""
par WSN_Network.Sensor_Node[0].wlan[0].mac mibModule "\"WSN_Network.Sensor_Node[0].wlan[0].mib\""
par WSN_Network.Sensor_Node[0].wlan[0].mac modeSet "\"g(mixed)\""
attr enum a,b,g(erp),g(mixed),n(mixed-2.4Ghz),p,ac
par WSN_Network.Sensor_Node[0].wlan[0].mac fcsMode "\"declared\""
attr enum declared,computed
par WSN_Network.Sensor_Node[0].wlan[0].mac initialRadioMode "\"receiver\""
attr enum off,sleep,receiver,transmitter,transceiver
par WSN_Network.Sensor_Node[0].wlan[0].mac mtu 2304B
attr unit B
par WSN_Network.Sensor_Node[0].wlan[0].mac qosStation false
scalar WSN_Network.Sensor_Node[0].wlan[0].mac packetReceivedFromLower:count 4
attr interpolationmode none
attr recordingmode count
attr title "packets received from lower layer, count"
scalar WSN_Network.Sensor_Node[0].wlan[0].mac packetReceivedFromLower:sum(packetBytes) 212
attr interpolationmode none
attr recordingmode sum(packetBytes)
attr title "packets received from lower layer, sum(packetBytes)"
scalar WSN_Network.Sensor_Node[0].wlan[0].mac packetSentToLower:count 3
attr interpolationmode none
attr recordingmode count
attr title "packets sent to lower layer, count"
scalar WSN_Network.Sensor_Node[0].wlan[0].mac packetSentToLower:sum(packetBytes) 198
attr interpolationmode none
attr recordingmode sum(packetBytes)
attr title "packets sent to lower layer, sum(packetBytes)"
scalar WSN_Network.Sensor_Node[0].wlan[0].mac packetReceivedFromUpper:count 2
attr interpolationmode none
attr recordingmode count
attr title "packets received from upper layer, count"
scalar WSN_Network.Sensor_Node[0].wlan[0].mac packetReceivedFromUpper:sum(packetBytes) 128
attr interpolationmode none
attr recordingmode sum(packetBytes)
attr title "packets received from upper layer, sum(packetBytes)"
scalar WSN_Network.Sensor_Node[0].wlan[0].mac packetSentToUpper:count 2
attr interpolationmode none
attr recordingmode count
attr title "packets sent to upper layer, count"
scalar WSN_Network.Sensor_Node[0].wlan[0].mac packetSentToUpper:sum(packetBytes) 128
attr interpolationmode none
attr recordingmode sum(packetBytes)
attr title "packets sent to upper layer, sum(packetBytes)"
scalar WSN_Network.Sensor_Node[0].wlan[0].mac packetDrop:count 0
attr interpolationmode none
attr recordingmode count
attr source packetDropped
attr title "packet drops, count"
scalar WSN_Network.Sensor_Node[0].wlan[0].mac packetDrop:sum(packetBytes) 0
attr interpolationmode none
attr recordingmode sum(packetBytes)
attr source packetDropped
attr title "packet drops, sum(packetBytes)"
scalar WSN_Network.Sensor_Node[0].wlan[0].mac packetDropIncorrectlyReceived:count 0
attr interpolationmode none
attr recordingmode count
attr source packetDropReasonIsIncorrectlyReceived(packetDropped)
attr title "packet drops: incorrectly received, count"
scalar WSN_Network.Sensor_Node[0].wlan[0].mac packetDropIncorrectlyReceived:sum(packetBytes) 0
attr interpolationmode none
attr recordingmode sum(packetBytes)
attr source packetDropReasonIsIncorrectlyReceived(packetDropped)
attr title "packet drops: incorrectly received, sum(packetBytes)"
scalar WSN_Network.Sensor_Node[0].wlan[0].mac packetDropNotAddressedToUs:count 0
attr interpolationmode none
attr recordingmode count
attr source packetDropReasonIsNotAddressedToUs(packetDropped)
attr title "packet drops: not addressed to us, count"
scalar WSN_Network.Sensor_Node[0].wlan[0].mac packetDropNotAddressedToUs:sum(packetBytes) 0
attr interpolationmode none
attr recordingmode sum(packetBytes)
attr source packetDropReasonIsNotAddressedToUs(packetDropped)
attr title "packet drops: not addressed to us, sum(packetBytes)"
scalar WSN_Network.Sensor_Node[0].wlan[0].mac packetDropQueueOverflow:count 0
attr interpolationmode none
attr recordingmode count
attr source packetDropReasonIsQueueOverflow(packetDropped)
attr title "packet drops: queue overflow, count"
scalar WSN_Network.Sensor_Node[0].wlan[0].mac packetDropQueueOverflow:sum(packetBytes) 0
attr interpolationmode none
attr recordingmode sum(packetBytes)
attr source packetDropReasonIsQueueOverflow(packetDropped)
attr title "packet drops: queue overflow, sum(packetBytes)"
scalar WSN_Network.Sensor_Node[0].wlan[0].mac packetDropRetryLimitReached:count 0
attr interpolationmode none
attr recordingmode count
attr source packetDropReasonIsRetryLimitReached(packetDropped)
attr title "packet drops: retry limit reached, count"
scalar WSN_Network.Sensor_Node[0].wlan[0].mac packetDropRetryLimitReached:sum(packetBytes) 0
attr interpolationmode none
attr recordingmode sum(packetBytes)
attr source packetDropReasonIsRetryLimitReached(packetDropped)
attr title "packet drops: retry limit reached, sum(packetBytes)"
scalar WSN_Network.Sensor_Node[0].wlan[0].mac packetDropDuplicateDetected:count 0
attr interpolationmode none
attr recordingmode count
attr source packetDropReasonIsDuplicateDetected(packetDropped)
attr title "packet drops: duplicate detected, count"
scalar WSN_Network.Sensor_Node[0].wlan[0].mac packetDropDuplicateDetected:sum(packetBytes) 0
attr interpolationmode none
attr recordingmode sum(packetBytes)
attr source packetDropReasonIsDuplicateDetected(packetDropped)
attr title "packet drops: duplicate detected, sum(packetBytes)"
scalar WSN_Network.Sensor_Node[0].wlan[0].mac packetDropOther:count 0
attr interpolationmode none
attr recordingmode count
attr source packetDropReasonIsOther(packetDropped)
attr title "packet drops: other, count"
scalar WSN_Network.Sensor_Node[0].wlan[0].mac packetDropOther:sum(packetBytes) 0
attr interpolationmode none
attr recordingmode sum(packetBytes)
attr source packetDropReasonIsOther(packetDropped)
attr title "packet drops: other, sum(packetBytes)"
scalar WSN_Network.Sensor_Node[0].wlan[0].mac linkBroken:count 0
attr interpolationmode none
attr recordingmode count
attr title "link breaks, count"
par WSN_Network.Sensor_Node[0].wlan[0].radio.antenna typename "\"inet.physicallayer.wireless.common.antenna.IsotropicAntenna\""
par WSN_Network.Sensor_Node[0].wlan[0].radio.antenna mobilityModule "\"^.^.^.mobility\""
par WSN_Network.Sensor_Node[0].wlan[0].radio.antenna numAntennas 1
par WSN_Network.Sensor_Node[0].wlan[0].radio.transmitter typename "\"inet.physicallayer.wireless.ieee80211.packetlevel.Ieee80211ScalarTransmitter\""
par WSN_Network.Sensor_Node[0].wlan[0].radio.transmitter preambleDuration -1s
attr unit s
par WSN_Network.Sensor_Node[0].wlan[0].radio.transmitter headerLength 192b
attr unit b
par WSN_Network.Sensor_Node[0].wlan[0].radio.transmitter bitrate -1bps
attr unit bps
par WSN_Network.Sensor_Node[0].wlan[0].radio.transmitter power 0.005W
attr unit W
par WSN_Network.Sensor_Node[0].wlan[0].radio.transmitter centerFrequency 2.412e+09Hz
attr unit Hz
par WSN_Network.Sensor_Node[0].wlan[0].radio.transmitter bandwidth "nan Hz"
attr unit Hz
par WSN_Network.Sensor_Node[0].wlan[0].radio.transmitter codeRate 1
par WSN_Network.Sensor_Node[0].wlan[0].radio.transmitter modulation "\"BPSK\""
par WSN_Network.Sensor_Node[0].wlan[0].radio.transmitter opMode "\"g(mixed)\""
attr enum a,b,g(erp),g(mixed),n(mixed-2.4Ghz),p,ac
par WSN_Network.Sensor_Node[0].wlan[0].radio.transmitter bandName "\"2.4 GHz\""
attr enum "2.4 GHz,5 GHz,5 GHz (20 MHz),5 GHz (40 MHz),5 GHz (80 MHz),5 GHz (160 MHz),5.9 GHz"
par WSN_Network.Sensor_Node[0].wlan[0].radio.transmitter channelNumber 0
par WSN_Network.Sensor_Node[0].wlan[0].radio.receiver.errorModel typename "\"inet.physicallayer.wireless.ieee80211.packetlevel.errormodel.Ieee80211NistErrorModel\""
par WSN_Network.Sensor_Node[0].wlan[0].radio.receiver.errorModel corruptionMode "\"packet\""
attr enum packet,chunk,byte,bit
par WSN_Network.Sensor_Node[0].wlan[0].radio.receiver.errorModel snirMode "\"min\""
attr enum min,mean
par WSN_Network.Sensor_Node[0].wlan[0].radio.receiver.errorModel snirOffset 0dB
attr unit dB
par WSN_Network.Sensor_Node[0].wlan[0].radio.receiver typename "\"inet.physicallayer.wireless.ieee80211.packetlevel.Ieee80211ScalarReceiver\""
par WSN_Network.Sensor_Node[0].wlan[0].radio.receiver snirThreshold 4dB
attr unit dB
par WSN_Network.Sensor_Node[0].wlan[0].radio.receiver snirThresholdMode "\"min\""
attr enum min,mean
par WSN_Network.Sensor_Node[0].wlan[0].radio.receiver energyDetection -85dBm
attr unit dBm
par WSN_Network.Sensor_Node[0].wlan[0].radio.receiver sensitivity -85dBm
attr unit dBm
par WSN_Network.Sensor_Node[0].wlan[0].radio.receiver centerFrequency 2.412e+09Hz
attr unit Hz
par WSN_Network.Sensor_Node[0].wlan[0].radio.receiver bandwidth 2.2e+07Hz
attr unit Hz
par WSN_Network.Sensor_Node[0].wlan[0].radio.receiver modulation "\"BPSK\""
par WSN_Network.Sensor_Node[0].wlan[0].radio.receiver opMode "\"g(mixed)\""
attr enum a,b,g(erp),g(mixed),n(mixed-2.4Ghz),p,ac
par WSN_Network.Sensor_Node[0].wlan[0].radio.receiver bandName "\"2.4 GHz\""
attr enum "2.4 GHz,5 GHz,5 GHz (20 MHz),5 GHz (40 MHz),5 GHz (80 MHz),5 GHz (160 MHz),5.9 GHz"
par WSN_Network.Sensor_Node[0].wlan[0].radio.receiver channelNumber 0
par WSN_Network.Sensor_Node[0].wlan[0].radio typename "\"inet.physicallayer.wireless.ieee80211.packetlevel.Ieee80211ScalarRadio\""
par WSN_Network.Sensor_Node[0].wlan[0].radio radioMediumModule "\"radioMedium\""
par WSN_Network.Sensor_Node[0].wlan[0].radio energySourceModule "\"\""
par WSN_Network.Sensor_Node[0].wlan[0].radio initialRadioMode "\"off\""
attr enum off,sleep,receiver,transmitter,transceiver
par WSN_Network.Sensor_Node[0].wlan[0].radio switchingTimes "\"ms 0 0 0 0 0 0 0 0 0 0 0 0 0 0 0 0 0 0 0 0 0 0 0 0 0\""
par WSN_Network.Sensor_Node[0].wlan[0].radio sendRawBytes false
par WSN_Network.Sensor_Node[0].wlan[0].radio separateTransmissionParts false
par WSN_Network.Sensor_Node[0].wlan[0].radio separateReceptionParts false
par WSN_Network.Sensor_Node[0].wlan[0].radio displayCommunicationRange false
par WSN_Network.Sensor_Node[0].wlan[0].radio displayInterferenceRange false
par WSN_Network.Sensor_Node[0].wlan[0].radio centerFrequency 2.412e+09Hz
attr unit Hz
par WSN_Network.Sensor_Node[0].wlan[0].radio bandwidth "nan Hz"
attr unit Hz
par WSN_Network.Sensor_Node[0].wlan[0].radio signalAnalogRepresentation "\"scalar\""
attr enum scalar,dimensional
par WSN_Network.Sensor_Node[0].wlan[0].radio opMode "\"g(mixed)\""
attr enum a,b,g(erp),g(mixed),n(mixed-2.4Ghz),p,ac
par WSN_Network.Sensor_Node[0].wlan[0].radio bandName "\"2.4 GHz\""
attr enum "2.4 GHz,5 GHz,5 GHz (20 MHz),5 GHz (40 MHz),5 GHz (80 MHz),5 GHz (160 MHz),5.9 GHz"
par WSN_Network.Sensor_Node[0].wlan[0].radio channelNumber 0
par WSN_Network.Sensor_Node[0].wlan[0].radio crcMode "\"declared\""
attr enum declared,computed
statistic WSN_Network.Sensor_Node[0].wlan[0].radio minSnir:histogram
field count 4
field mean 532.54253271519
field stddev 0.022420040851987
field min 532.51476160768
field max 532.56778951199
field sum 2130.1701308608
field sqrsum 1134406.1981108
attr recordingmode histogram
attr source minimumSnir(packetSentToUpper)
attr title "Min SNIR"
bin	-inf	0
bin	532.501	0
bin	532.502	0
bin	532.503	0
bin	532.504	0
bin	532.505	0
bin	532.506	0
bin	532.507	0
bin	532.508	0
bin	532.509	0
bin	532.51	0
bin	532.511	0
bin	532.512	0
bin	532.513	0
bin	532.514	1
bin	532.515	0
bin	532.516	0
bin	532.517	0
bin	532.518	0
bin	532.519	0
bin	532.52	0
bin	532.521	0
bin	532.522	0
bin	532.523	0
bin	532.524	0
bin	532.525	0
bin	532.526	0
bin	532.527	0
bin	532.528	0
bin	532.529	0
bin	532.53	0
bin	532.531	0
bin	532.532	0
bin	532.533	0
bin	532.534	0
bin	532.535	0
bin	532.536	1
bin	532.537	0
bin	532.538	0
bin	532.539	0
bin	532.54	0
bin	532.541	0
bin	532.542	0
bin	532.543	0
bin	532.544	0
bin	532.545	0
bin	532.546	0
bin	532.547	0
bin	532.548	0
bin	532.549	0
bin	532.55	1
bin	532.551	0
bin	532.552	0
bin	532.553	0
bin	532.554	0
bin	532.555	0
bin	532.556	0
bin	532.557	0
bin	532.558	0
bin	532.559	0
bin	532.56	0
bin	532.561	0
bin	532.562	0
bin	532.563	0
bin	532.564	0
bin	532.565	0
bin	532.566	0
bin	532.567	1
bin	532.568	0
bin	532.569	0
bin	532.57	0
bin	532.571	0
bin	532.572	0
bin	532.573	0
bin	532.574	0
bin	532.575	0
bin	532.576	0
bin	532.577	0
bin	532.578	0
bin	532.579	0
bin	532.58	0
bin	532.581	0
bin	532.582	0
statistic WSN_Network.Sensor_Node[0].wlan[0].radio packetErrorRate:histogram
field count 4
field mean 0
field stddev 0
field min 0
field max 0
field sum 0
field sqrsum 0
attr recordingmode histogram
attr source packetErrorRate(packetSentToUpper)
attr title "Packet error rate"
bin	-inf	0
bin	-0.5	0
bin	-0.48	0
bin	-0.46	0
bin	-0.44	0
bin	-0.42	0
bin	-0.4	0
bin	-0.38	0
bin	-0.36	0
bin	-0.34	0
bin	-0.32	0
bin	-0.3	0
bin	-0.28	0
bin	-0.26	0
bin	-0.24	0
bin	-0.22	0
bin	-0.2	0
bin	-0.18	0
bin	-0.16	0
bin	-0.14	0
bin	-0.12	0
bin	-0.1	0
bin	-0.08	0
bin	-0.06	0
bin	-0.04	0
bin	-0.02	0
bin	0	4
bin	0.02	0
bin	0.04	0
bin	0.06	0
bin	0.08	0
bin	0.1	0
bin	0.12	0
bin	0.14	0
bin	0.16	0
bin	0.18	0
bin	0.2	0
bin	0.22	0
bin	0.24	0
bin	0.26	0
bin	0.28	0
bin	0.3	0
bin	0.32	0
bin	0.34	0
bin	0.36	0
bin	0.38	0
bin	0.4	0
bin	0.42	0
bin	0.44	0
bin	0.46	0
bin	0.48	0
bin	0.5	0
statistic WSN_Network.Sensor_Node[0].wlan[0].radio bitErrorRate:histogram
field count 0
field mean nan
field stddev nan
field min nan
field max nan
field sum 0
field sqrsum 0
attr recordingmode histogram
attr source bitErrorRate(packetSentToUpper)
attr title "Bit error rate"
bin	-inf	0
bin	0	0
bin	1	0
statistic WSN_Network.Sensor_Node[0].wlan[0].radio symbolErrorRate:histogram
field count 0
field mean nan
field stddev nan
field min nan
field max nan
field sum 0
field sqrsum 0
attr recordingmode histogram
attr source symbolErrorRate(packetSentToUpper)
attr title "Symbol error rate"
bin	-inf	0
bin	0	0
bin	1	0
scalar WSN_Network.Sensor_Node[0].wlan[0].radio transmissionState:count 12
attr interpolationmode sample-hold
attr recordingmode count
attr source transmissionStateChanged
attr title "Radio transmission state, count"
scalar WSN_Network.Sensor_Node[0].wlan[0].radio receptionState:count 15
attr interpolationmode sample-hold
attr recordingmode count
attr source receptionStateChanged
attr title "Radio reception state, count"
scalar WSN_Network.Sensor_Node[0].wlan[0].radio radioMode:count 9
attr interpolationmode sample-hold
attr recordingmode count
attr source radioModeChanged
attr title "Radio mode, count"
statistic WSN_Network.Sensor_Node[0].wlan[0].radio radioChannel:histogram
field count 1
field mean 0
field stddev nan
field min 0
field max 0
field sum 0
field sqrsum 0
attr interpolationmode sample-hold
attr recordingmode histogram
attr source radioChannelChanged
attr title "Radio channel"
bin	-inf	0
bin	-0.5	0
bin	-0.48	0
bin	-0.46	0
bin	-0.44	0
bin	-0.42	0
bin	-0.4	0
bin	-0.38	0
bin	-0.36	0
bin	-0.34	0
bin	-0.32	0
bin	-0.3	0
bin	-0.28	0
bin	-0.26	0
bin	-0.24	0
bin	-0.22	0
bin	-0.2	0
bin	-0.18	0
bin	-0.16	0
bin	-0.14	0
bin	-0.12	0
bin	-0.1	0
bin	-0.08	0
bin	-0.06	0
bin	-0.04	0
bin	-0.02	0
bin	0	1
bin	0.02	0
bin	0.04	0
bin	0.06	0
bin	0.08	0
bin	0.1	0
bin	0.12	0
bin	0.14	0
bin	0.16	0
bin	0.18	0
bin	0.2	0
bin	0.22	0
bin	0.24	0
bin	0.26	0
bin	0.28	0
bin	0.3	0
bin	0.32	0
bin	0.34	0
bin	0.36	0
bin	0.38	0
bin	0.4	0
bin	0.42	0
bin	0.44	0
bin	0.46	0
bin	0.48	0
bin	0.5	0
par WSN_Network.Sensor_Node[0].wlan[0] typename "\"inet.linklayer.ieee80211.Ieee80211Interface\""
[...]
par WSN_Network.Sensor_Node[49].ipv4.configurator networkConfiguratorModule "\"configurator\""
par WSN_Network.Sensor_Node[49].ipv4.configurator configureRoutingTable true
par WSN_Network.Sensor_Node[49].ipv4.routingTable typename "\"inet.networklayer.ipv4.Ipv4RoutingTable\""
par WSN_Network.Sensor_Node[49].ipv4.routingTable interfaceTableModule "\"WSN_Network.Sensor_Node[49].interfaceTable\""
par WSN_Network.Sensor_Node[49].ipv4.routingTable routerId "\"auto\""
par WSN_Network.Sensor_Node[49].ipv4.routingTable netmaskRoutes "\"*\""
par WSN_Network.Sensor_Node[49].ipv4.routingTable forwarding true
par WSN_Network.Sensor_Node[49].ipv4.routingTable multicastForwarding false
par WSN_Network.Sensor_Node[49].ipv4.routingTable useAdminDist false
par WSN_Network.Sensor_Node[49].ipv4.routingTable routingFile "\"\""
par WSN_Network.Sensor_Node[49].ipv4.natTable typename "\"inet.networklayer.ipv4.Ipv4NatTable\""
par WSN_Network.Sensor_Node[49].ipv4.natTable networkProtocolModule "\"^.ip\""
par WSN_Network.Sensor_Node[49].ipv4.natTable config "<config/> at content:1"
par WSN_Network.Sensor_Node[49].ipv4.up typename "\"inet.common.MessageDispatcher\""
par WSN_Network.Sensor_Node[49].ipv4.up displayStringTextFormat "\"processed %p pk (%l)\""
par WSN_Network.Sensor_Node[49].ipv4.up forwardServiceRegistration true
par WSN_Network.Sensor_Node[49].ipv4.up forwardProtocolRegistration true
par WSN_Network.Sensor_Node[49].ipv4.igmp typename "\"inet.networklayer.ipv4.Igmpv2\""
par WSN_Network.Sensor_Node[49].ipv4.igmp interfaceTableModule "\"WSN_Network.Sensor_Node[49].interfaceTable\""
par WSN_Network.Sensor_Node[49].ipv4.igmp routingTableModule "\"WSN_Network.Sensor_Node[49].ipv4.routingTable\""
par WSN_Network.Sensor_Node[49].ipv4.igmp crcMode "\"declared\""
attr enum declared,computed
par WSN_Network.Sensor_Node[49].ipv4.igmp enabled true
par WSN_Network.Sensor_Node[49].ipv4.igmp robustnessVariable 2
par WSN_Network.Sensor_Node[49].ipv4.igmp queryInterval 125s
attr unit s
par WSN_Network.Sensor_Node[49].ipv4.igmp queryResponseInterval 10s
attr unit s
par WSN_Network.Sensor_Node[49].ipv4.igmp groupMembershipInterval 260s
attr unit s
par WSN_Network.Sensor_Node[49].ipv4.igmp otherQuerierPresentInterval 255s
attr unit s
par WSN_Network.Sensor_Node[49].ipv4.igmp startupQueryInterval 31.25s
attr unit s
par WSN_Network.Sensor_Node[49].ipv4.igmp startupQueryCount 2
par WSN_Network.Sensor_Node[49].ipv4.igmp lastMemberQueryInterval 1s
attr unit s
par WSN_Network.Sensor_Node[49].ipv4.igmp lastMemberQueryCount 2
par WSN_Network.Sensor_Node[49].ipv4.igmp unsolicitedReportInterval 10s
attr unit s
par WSN_Network.Sensor_Node[49].ipv4.icmp typename "\"inet.networklayer.ipv4.Icmp\""
par WSN_Network.Sensor_Node[49].ipv4.icmp interfaceTableModule "\"WSN_Network.Sensor_Node[49].interfaceTable\""
par WSN_Network.Sensor_Node[49].ipv4.icmp routingTableModule "\"WSN_Network.Sensor_Node[49].ipv4.routingTable\""
par WSN_Network.Sensor_Node[49].ipv4.icmp crcMode "\"declared\""
attr enum declared,computed
attr mutable ""
par WSN_Network.Sensor_Node[49].ipv4.icmp quoteLength 8B
attr mutable ""
attr unit B
par WSN_Network.Sensor_Node[49].ipv4.mp typename "\"inet.common.MessageDispatcher\""
par WSN_Network.Sensor_Node[49].ipv4.mp displayStringTextFormat "\"processed %p pk (%l)\""
par WSN_Network.Sensor_Node[49].ipv4.mp forwardServiceRegistration true
par WSN_Network.Sensor_Node[49].ipv4.mp forwardProtocolRegistration true
par WSN_Network.Sensor_Node[49].ipv4.ip typename "\"inet.networklayer.ipv4.Ipv4\""
par WSN_Network.Sensor_Node[49].ipv4.ip interfaceTableModule "\"WSN_Network.Sensor_Node[49].interfaceTable\""
par WSN_Network.Sensor_Node[49].ipv4.ip routingTableModule "\"WSN_Network.Sensor_Node[49].ipv4.routingTable\""
par WSN_Network.Sensor_Node[49].ipv4.ip arpModule "\"WSN_Network.Sensor_Node[49].ipv4.arp\""
par WSN_Network.Sensor_Node[49].ipv4.ip icmpModule "\"WSN_Network.Sensor_Node[49].ipv4.icmp\""
par WSN_Network.Sensor_Node[49].ipv4.ip crcMode "\"declared\""
attr enum declared,computed
par WSN_Network.Sensor_Node[49].ipv4.ip timeToLive 32
par WSN_Network.Sensor_Node[49].ipv4.ip multicastTimeToLive 32
par WSN_Network.Sensor_Node[49].ipv4.ip fragmentTimeout 60s
attr unit s
par WSN_Network.Sensor_Node[49].ipv4.ip limitedBroadcast false
par WSN_Network.Sensor_Node[49].ipv4.ip directBroadcastInterfaces "\"\""
scalar WSN_Network.Sensor_Node[49].ipv4.ip packetDropAddressResolutionFailed:count 0
attr interpolationmode none
attr recordingmode count
attr source packetDropReasonIsAddressResolutionFailed(packetDropped)
attr title "packet drop: address resolution failed, count"
scalar WSN_Network.Sensor_Node[49].ipv4.ip packetDropAddressResolutionFailed:sum(packetBytes) 0
attr interpolationmode none
attr recordingmode sum(packetBytes)
attr source packetDropReasonIsAddressResolutionFailed(packetDropped)
attr title "packet drop: address resolution failed, sum(packetBytes)"
scalar WSN_Network.Sensor_Node[49].ipv4.ip packetDropHopLimitReached:count 0
attr interpolationmode none
attr recordingmode count
attr source packetDropReasonIsHopLimitReached(packetDropped)
attr title "packet drop: hop limit reached, count"
scalar WSN_Network.Sensor_Node[49].ipv4.ip packetDropHopLimitReached:sum(packetBytes) 0
attr interpolationmode none
attr recordingmode sum(packetBytes)
attr source packetDropReasonIsHopLimitReached(packetDropped)
attr title "packet drop: hop limit reached, sum(packetBytes)"
scalar WSN_Network.Sensor_Node[49].ipv4.ip packetDropForwardingDisabled:count 0
attr interpolationmode none
attr recordingmode count
attr source packetDropReasonIsForwardingDisabled(packetDropped)
attr title "packet drop: forwarding disabled, count"
scalar WSN_Network.Sensor_Node[49].ipv4.ip packetDropForwardingDisabled:sum(packetBytes) 0
attr interpolationmode none
attr recordingmode sum(packetBytes)
attr source packetDropReasonIsForwardingDisabled(packetDropped)
attr title "packet drop: forwarding disabled, sum(packetBytes)"
scalar WSN_Network.Sensor_Node[49].ipv4.ip packetDropNoInterfaceFound:count 0
attr interpolationmode none
attr recordingmode count
attr source packetDropReasonIsNoInterfaceFound(packetDropped)
attr title "packet drop: no interface found, count"
scalar WSN_Network.Sensor_Node[49].ipv4.ip packetDropNoInterfaceFound:sum(packetBytes) 0
attr interpolationmode none
attr recordingmode sum(packetBytes)
attr source packetDropReasonIsNoInterfaceFound(packetDropped)
attr title "packet drop: no interface found, sum(packetBytes)"
scalar WSN_Network.Sensor_Node[49].ipv4.ip packetDropNoRouteFound:count 0
attr interpolationmode none
attr recordingmode count
attr source packetDropReasonIsNoRouteFound(packetDropped)
attr title "packet drop: no route found, count"
scalar WSN_Network.Sensor_Node[49].ipv4.ip packetDropNoRouteFound:sum(packetBytes) 0
attr interpolationmode none
attr recordingmode sum(packetBytes)
attr source packetDropReasonIsNoRouteFound(packetDropped)
attr title "packet drop: no route found, sum(packetBytes)"
scalar WSN_Network.Sensor_Node[49].ipv4.ip packetDropUndefined:count 0
attr interpolationmode none
attr recordingmode count
attr source packetDropReasonIsUndefined(packetDropped)
attr title "packet drop: undefined, count"
scalar WSN_Network.Sensor_Node[49].ipv4.ip packetDropUndefined:sum(packetBytes) 0
attr interpolationmode none
attr recordingmode sum(packetBytes)
attr source packetDropReasonIsUndefined(packetDropped)
attr title "packet drop: undefined, sum(packetBytes)"
par WSN_Network.Sensor_Node[49].ipv4.arp typename "\"inet.networklayer.arp.ipv4.Arp\""
par WSN_Network.Sensor_Node[49].ipv4.arp interfaceTableModule "\"WSN_Network.Sensor_Node[49].interfaceTable\""
par WSN_Network.Sensor_Node[49].ipv4.arp routingTableModule "\"WSN_Network.Sensor_Node[49].ipv4.routingTable\""
par WSN_Network.Sensor_Node[49].ipv4.arp retryTimeout 1s
attr unit s
par WSN_Network.Sensor_Node[49].ipv4.arp retryCount 3
par WSN_Network.Sensor_Node[49].ipv4.arp cacheTimeout 120s
attr unit s
par WSN_Network.Sensor_Node[49].ipv4.arp proxyArpInterfaces "\"\""
scalar WSN_Network.Sensor_Node[49].ipv4.arp arpReplySent:count 0
attr recordingmode count
attr source arpReplySent
attr title "ARP replies sent, count"
scalar WSN_Network.Sensor_Node[49].ipv4.arp arpReplySent:sum(packetBytes) 0
attr recordingmode sum(packetBytes)
attr source arpReplySent
attr title "ARP replies sent, sum(packetBytes)"
scalar WSN_Network.Sensor_Node[49].ipv4.arp arpRequestSent:count 0
attr recordingmode count
attr source arpRequestSent
attr title "ARP request sent, count"
scalar WSN_Network.Sensor_Node[49].ipv4.arp arpRequestSent:sum(packetBytes) 0
attr recordingmode sum(packetBytes)
attr source arpRequestSent
attr title "ARP request sent, sum(packetBytes)"
scalar WSN_Network.Sensor_Node[49].ipv4.arp arpResolutionFailed:count 0
attr recordingmode count
attr title "ARP failed resolutions, count"
scalar WSN_Network.Sensor_Node[49].ipv4.arp arpResolutionCompleted:count 0
attr recordingmode count
attr title "ARP completed resolutions, count"
scalar WSN_Network.Sensor_Node[49].ipv4.arp arpResolutionInitiated:count 0
attr recordingmode count
attr title "ARP initiated resolutions, count"
par WSN_Network.Sensor_Node[49].ipv4.lp typename "\"inet.common.MessageDispatcher\""
par WSN_Network.Sensor_Node[49].ipv4.lp displayStringTextFormat "\"processed %p pk (%l)\""
par WSN_Network.Sensor_Node[49].ipv4.lp forwardServiceRegistration true
par WSN_Network.Sensor_Node[49].ipv4.lp forwardProtocolRegistration true
par WSN_Network.Sensor_Node[49].ipv4 typename "\"inet.networklayer.ipv4.Ipv4NetworkLayer\""
par WSN_Network.Sensor_Node[49].ipv4 forwarding true
par WSN_Network.Sensor_Node[49].ipv4 multicastForwarding false
par WSN_Network.Sensor_Node[49].ipv4 interfaceTableModule "\"WSN_Network.Sensor_Node[49].interfaceTable\""
par WSN_Network.Sensor_Node[49].ipv4 displayStringTextFormat "\"%i\""
par WSN_Network.Sensor_Node[49].nl typename "\"inet.common.MessageDispatcher\""
par WSN_Network.Sensor_Node[49].nl displayStringTextFormat "\"processed %p pk (%l)\""
par WSN_Network.Sensor_Node[49].nl forwardServiceRegistration true
par WSN_Network.Sensor_Node[49].nl forwardProtocolRegistration true
par WSN_Network.Sensor_Node[49].udp typename "\"inet.transportlayer.udp.Udp\""
par WSN_Network.Sensor_Node[49].udp interfaceTableModule "\"WSN_Network.Sensor_Node[49].interfaceTable\""
par WSN_Network.Sensor_Node[49].udp icmpModule "\"^.ipv4.icmp\""
par WSN_Network.Sensor_Node[49].udp icmpv6Module "\"^.ipv6.icmpv6\""
par WSN_Network.Sensor_Node[49].udp crcMode "\"declared\""
attr enum disabled,declared,computed
par WSN_Network.Sensor_Node[49].udp defaultMulticastLoop true
scalar WSN_Network.Sensor_Node[49].udp packetReceived:count 0
attr interpolationmode none
attr recordingmode count
attr source packetReceived
attr title "packets received, count"
scalar WSN_Network.Sensor_Node[49].udp packetReceived:sum(packetBytes) 0
attr interpolationmode none
attr recordingmode sum(packetBytes)
attr source packetReceived
attr title "packets received, sum(packetBytes)"
scalar WSN_Network.Sensor_Node[49].udp packetSent:count 0
attr interpolationmode none
attr recordingmode count
attr source packetSent
attr title "packets sent, count"
scalar WSN_Network.Sensor_Node[49].udp packetSent:sum(packetBytes) 0
attr interpolationmode none
attr recordingmode sum(packetBytes)
attr source packetSent
attr title "packets sent, sum(packetBytes)"
scalar WSN_Network.Sensor_Node[49].udp passedUpPk:count 0
attr interpolationmode none
attr recordingmode count
attr source packetSentToUpper
attr title "packets passed up, count"
scalar WSN_Network.Sensor_Node[49].udp droppedPkWrongPort:count 0
attr interpolationmode none
attr recordingmode count
attr source packetDropReasonIsNoPortFound(packetDropped)
attr title "packets dropped (wrong port), count"
scalar WSN_Network.Sensor_Node[49].udp droppedPkBadChecksum:count 0
attr interpolationmode none
attr recordingmode count
attr source packetDropReasonIsIncorrectlyReceived(packetDropped)
attr title "packets dropped (checksum error), count"
par WSN_Network.Sensor_Node[49].tcp typename "\"inet.transportlayer.tcp.Tcp\""
par WSN_Network.Sensor_Node[49].tcp crcMode "\"declared\""
attr enum declared,computed
par WSN_Network.Sensor_Node[49].tcp advertisedWindow 7504
par WSN_Network.Sensor_Node[49].tcp delayedAcksEnabled false
par WSN_Network.Sensor_Node[49].tcp nagleEnabled true
par WSN_Network.Sensor_Node[49].tcp limitedTransmitEnabled false
par WSN_Network.Sensor_Node[49].tcp increasedIWEnabled false
par WSN_Network.Sensor_Node[49].tcp sackSupport false
par WSN_Network.Sensor_Node[49].tcp windowScalingSupport false
par WSN_Network.Sensor_Node[49].tcp windowScalingFactor -1
par WSN_Network.Sensor_Node[49].tcp timestampSupport false
par WSN_Network.Sensor_Node[49].tcp mss 536
par WSN_Network.Sensor_Node[49].tcp msl 120s
attr unit s
par WSN_Network.Sensor_Node[49].tcp tcpAlgorithmClass "\"TcpReno\""
par WSN_Network.Sensor_Node[49].tcp useDataNotification false
par WSN_Network.Sensor_Node[49].tcp dupthresh 3
par WSN_Network.Sensor_Node[49].tcp initialSsthresh 4294967295
par WSN_Network.Sensor_Node[49].tcp stopOperationExtraTime 0s
attr unit s
par WSN_Network.Sensor_Node[49].tcp stopOperationTimeout 2s
attr unit s
par WSN_Network.Sensor_Node[49].tcp ecnWillingness false
par WSN_Network.Sensor_Node[49].tcp dctcpGamma 0.0625
par WSN_Network.Sensor_Node[49].tn typename "\"inet.common.MessageDispatcher\""
par WSN_Network.Sensor_Node[49].tn displayStringTextFormat "\"processed %p pk (%l)\""
par WSN_Network.Sensor_Node[49].tn forwardServiceRegistration true
par WSN_Network.Sensor_Node[49].tn forwardProtocolRegistration true
par WSN_Network.Sensor_Node[49].app[0] typename "\"inet.applications.pingapp.PingApp\""
par WSN_Network.Sensor_Node[49].app[0] destAddr "\"Sensor_Node[0]\""
par WSN_Network.Sensor_Node[49].app[0] srcAddr "\"\""
par WSN_Network.Sensor_Node[49].app[0] packetSize 56B
attr unit B
par WSN_Network.Sensor_Node[49].app[0] sendInterval 1s
attr unit s
par WSN_Network.Sensor_Node[49].app[0] hopLimit -1
par WSN_Network.Sensor_Node[49].app[0] count -1
par WSN_Network.Sensor_Node[49].app[0] startTime 3.85697s
attr unit s
par WSN_Network.Sensor_Node[49].app[0] stopTime -1s
attr unit s
par WSN_Network.Sensor_Node[49].app[0] sleepDuration 0s
attr unit s
par WSN_Network.Sensor_Node[49].app[0] continuous false
par WSN_Network.Sensor_Node[49].app[0] printPing true
par WSN_Network.Sensor_Node[49].app[0] crcMode "\"declared\""
attr enum declared,computed
par WSN_Network.Sensor_Node[49].app[0] networkProtocol "\"\""
par WSN_Network.Sensor_Node[49].app[0] stopOperationExtraTime -1s
attr unit s
par WSN_Network.Sensor_Node[49].app[0] stopOperationTimeout 2s
attr unit s
scalar WSN_Network.Sensor_Node[49].app[0] pingRxSeq:count 0
attr interpolationmode none
attr recordingmode count
attr title "ping rx seq, count"
scalar WSN_Network.Sensor_Node[49].app[0] pingTxSeq:count 0
attr interpolationmode none
attr recordingmode count
attr title "ping tx seq, count"
scalar WSN_Network.Sensor_Node[49].app[0] numOutOfOrderArrivals:last nan
attr interpolationmode none
attr recordingmode last
attr title "ping out-of-order arrivals, last"
scalar WSN_Network.Sensor_Node[49].app[0] numLost:last nan
attr interpolationmode none
attr recordingmode last
attr title "pings lost, last"
statistic WSN_Network.Sensor_Node[49].app[0] rtt:histogram
field count 0
field mean nan
field stddev nan
field min nan
field max nan
field sum 0
field sqrsum 0
attr interpolationmode none
attr recordingmode histogram
attr title "ping round-trip time"
attr unit s
bin	-inf	0
bin	0	0
bin	1	0
par WSN_Network.Sensor_Node[49].app[1] typename "\"inet.applications.pingapp.PingApp\""
par WSN_Network.Sensor_Node[49].app[1] destAddr "\"Sensor_Node[0]\""
par WSN_Network.Sensor_Node[49].app[1] srcAddr "\"\""
par WSN_Network.Sensor_Node[49].app[1] packetSize 56B
attr unit B
par WSN_Network.Sensor_Node[49].app[1] sendInterval 1s
attr unit s
par WSN_Network.Sensor_Node[49].app[1] hopLimit -1
par WSN_Network.Sensor_Node[49].app[1] count -1
par WSN_Network.Sensor_Node[49].app[1] startTime 7.877s
attr unit s
par WSN_Network.Sensor_Node[49].app[1] stopTime -1s
attr unit s
par WSN_Network.Sensor_Node[49].app[1] sleepDuration 0s
attr unit s
par WSN_Network.Sensor_Node[49].app[1] continuous false
par WSN_Network.Sensor_Node[49].app[1] printPing true
par WSN_Network.Sensor_Node[49].app[1] crcMode "\"declared\""
attr enum declared,computed
par WSN_Network.Sensor_Node[49].app[1] networkProtocol "\"\""
par WSN_Network.Sensor_Node[49].app[1] stopOperationExtraTime -1s
attr unit s
par WSN_Network.Sensor_Node[49].app[1] stopOperationTimeout 2s
attr unit s
scalar WSN_Network.Sensor_Node[49].app[1] pingRxSeq:count 0
attr interpolationmode none
attr recordingmode count
attr title "ping rx seq, count"
scalar WSN_Network.Sensor_Node[49].app[1] pingTxSeq:count 0
attr interpolationmode none
attr recordingmode count
attr title "ping tx seq, count"
scalar WSN_Network.Sensor_Node[49].app[1] numOutOfOrderArrivals:last nan
attr interpolationmode none
attr recordingmode last
attr title "ping out-of-order arrivals, last"
scalar WSN_Network.Sensor_Node[49].app[1] numLost:last nan
attr interpolationmode none
attr recordingmode last
attr title "pings lost, last"
statistic WSN_Network.Sensor_Node[49].app[1] rtt:histogram
field count 0
field mean nan
field stddev nan
field min nan
field max nan
field sum 0
field sqrsum 0
attr interpolationmode none
attr recordingmode histogram
attr title "ping round-trip time"
attr unit s
bin	-inf	0
bin	0	0
bin	1	0
par WSN_Network.Sensor_Node[49].at typename "\"inet.common.MessageDispatcher\""
par WSN_Network.Sensor_Node[49].at displayStringTextFormat "\"processed %p pk (%l)\""
par WSN_Network.Sensor_Node[49].at forwardServiceRegistration true
par WSN_Network.Sensor_Node[49].at forwardProtocolRegistration true
par WSN_Network.Sensor_Node[49] typename "\"inet.node.inet.AdhocHost\""
par WSN_Network.Sensor_Node[49] hasStatus false
par WSN_Network.Sensor_Node[49] osgModel "\"\""
par WSN_Network.Sensor_Node[49] osgModelColor "\"\""
par WSN_Network.Sensor_Node[49] canvasImage "\"\""
par WSN_Network.Sensor_Node[49] canvasImageColor "\"\""
par WSN_Network.Sensor_Node[49] recordPcap false
par WSN_Network.Sensor_Node[49] numPcapRecorders 0
par WSN_Network.Sensor_Node[49] numLoInterfaces 1
par WSN_Network.Sensor_Node[49] numWlanInterfaces 1
par WSN_Network.Sensor_Node[49] numEthInterfaces 0
par WSN_Network.Sensor_Node[49] numPppInterfaces 0
par WSN_Network.Sensor_Node[49] numTunInterfaces 0
par WSN_Network.Sensor_Node[49] numVirtInterfaces 0
par WSN_Network.Sensor_Node[49] fcsMode "\"declared\""
attr enum declared,computed
par WSN_Network.Sensor_Node[49] hasIpv4 true
par WSN_Network.Sensor_Node[49] hasIpv6 false
par WSN_Network.Sensor_Node[49] hasGn false
par WSN_Network.Sensor_Node[49] forwarding true
par WSN_Network.Sensor_Node[49] multicastForwarding false
par WSN_Network.Sensor_Node[49] hasUdp true
par WSN_Network.Sensor_Node[49] hasTcp true
par WSN_Network.Sensor_Node[49] hasSctp false
par WSN_Network.Sensor_Node[49] numApps 2
par WSN_Network.Base_Station_2 typename "\"inet.node.base.NodeBase\""
par WSN_Network.Base_Station_2 hasStatus false
par WSN_Network.Base_Station_2 osgModel "\"\""
par WSN_Network.Base_Station_2 osgModelColor "\"\""
par WSN_Network.Base_Station_2 canvasImage "\"\""
par WSN_Network.Base_Station_2 canvasImageColor "\"\""
par WSN_Network typename "\"hybrid_intrusion_detection_for_sinkhole_defense.simulations.WSN_Network\""
par WSN_Network numSensors 50

