file 1120347 1748327389                                         
version 3
run WSN_Network-0-20250527-11:55:44-17188
attr configname WSN_Network
attr datetime 20250527-11:55:44
attr datetimef 20250527-115544
attr experiment WSN_Network
attr inifile omnetpp.ini
attr iterationvars ""
attr iterationvarsd ""
attr iterationvarsf ""
attr measurement ""
attr network WSN_Network
attr processid 17188
attr repetition 0
attr replication #0
attr resultdir results
attr runnumber 0
attr seedset 0
config image-path ../../inet4.5/images
config **.client.numApps 1
config **.client.app[*].typename TcpSessionApp
config **.client.app[*].active true
config **.client.app[*].localAddress "\"\""
config **.client.app[*].localPort -1
config **.client.app[*].connectAddress "\"server\""
config **.client.app[*].connectPort 1000
config **.client.app[*].tOpen 1.0s
config **.client.app[*].tSend 1.1s
config **.client.app[*].sendBytes 1MiB
config **.client.app[*].sendScript "\"\""
config **.client.app[*].tClose 0s
config **.server.numApps 1
config **.server.app[*].typename TcpEchoApp
config **.server.app[0].localAddress "\"\""
config **.server.app[0].localPort 1000
config **.server.app[0].echoFactor 2.0
config **.server.app[0].echoDelay 0s
config **.eth[*].duplexMode true
config **.ppp[*].queue.typename DropTailQueue
config **.ppp[*].queue.packetCapacity 10
config *.numSensors 50
config **.constraintAreaMinX 0m
config **.constraintAreaMinY 0m
config **.constraintAreaMinZ 0m
config **.constraintAreaMaxX 2500m
config **.constraintAreaMaxY 2500m
config **.constraintAreaMaxZ 50m
config *.Sensor_Node[*].mobility.typename MassMobility
config *.Sensor_Node[*].mobility.changeInterval "truncnormal(2s, 0.5s)"
config *.Sensor_Node[*].mobility.angleDelta "normal(0deg, 30deg)"
config *.Sensor_Node[*].mobility.speed "truncnormal(20mps, 8mps)"
config *.Sensor_Node[*].mobility.updateInterval 100ms
config *.Sensor_Node[*].mobility.initFromDisplayString false
config *.Sensor_Node[*].networkLayer.typename Ipv4NetworkLayer
config *.Sensor_Node[*].networkLayer.ip.routingProtocol.typename OlsrRouting
config *.Sensor_Node[*].networkLayer.ip.forward true
config *.Sensor_Node[0].numApps 0
config *.Sensor_Node[*].numApps 2
config *.Sensor_Node[*].app[*].typename PingApp
config *.Sensor_Node[*].app[*].destAddr "\"Sensor_Node[0]\""
config *.Sensor_Node[*].app[0].startTime uniform(1s,5s)
config *.Sensor_Node[*].app[1].startTime 5s+uniform(1s,5s)
config *.Sensor_Node[*].app[*].printPing true
config *.Sensor_Node[*].wlan[*].radio.transmitter.power 5mW
config network WSN_Network
config sim-time-limit 500s
config total-stack 2MiB

vector 0 WSN_Network.server.lo[0].lo rcvdPkFromHl:vector(packetBytes) ETV
attr interpolationmode none
attr recordingmode vector(packetBytes)
attr source packetReceivedFromUpper
attr title "packets received from higher layer, packetBytes"
vector 1 WSN_Network.server.lo[0].lo passedUpPk:vector(packetBytes) ETV
attr interpolationmode none
attr recordingmode vector(packetBytes)
attr source packetSentToUpper
attr title "packets passed to higher layer, packetBytes"
vector 2 WSN_Network.server.lo[0] packetDropInterfaceDown:vector(packetBytes) ETV
attr interpolationmode none
attr recordingmode vector(packetBytes)
attr source packetDropReasonIsInterfaceDown(packetDropped)
attr title "packet drops: interface down, packetBytes"
vector 3 WSN_Network.server.lo[0] packetDropNoCarrier:vector(packetBytes) ETV
attr interpolationmode none
attr recordingmode vector(packetBytes)
attr source packetDropReasonIsNoCarrier(packetDropped)
attr title "packet drops: no carrier, packetBytes"
vector 4 WSN_Network.server.ipv4.ip packetDropAddressResolutionFailed:vector(packetBytes) ETV
attr interpolationmode none
attr recordingmode vector(packetBytes)
attr source packetDropReasonIsAddressResolutionFailed(packetDropped)
attr title "packet drop: address resolution failed, packetBytes"
vector 5 WSN_Network.server.ipv4.ip packetDropHopLimitReached:vector(packetBytes) ETV
attr interpolationmode none
attr recordingmode vector(packetBytes)
attr source packetDropReasonIsHopLimitReached(packetDropped)
attr title "packet drop: hop limit reached, packetBytes"
vector 6 WSN_Network.server.ipv4.ip packetDropForwardingDisabled:vector(packetBytes) ETV
attr interpolationmode none
attr recordingmode vector(packetBytes)
attr source packetDropReasonIsForwardingDisabled(packetDropped)
attr title "packet drop: forwarding disabled, packetBytes"
vector 7 WSN_Network.server.ipv4.ip packetDropNoInterfaceFound:vector(packetBytes) ETV
attr interpolationmode none
attr recordingmode vector(packetBytes)
attr source packetDropReasonIsNoInterfaceFound(packetDropped)
attr title "packet drop: no interface found, packetBytes"
vector 8 WSN_Network.server.ipv4.ip packetDropNoRouteFound:vector(packetBytes) ETV
attr interpolationmode none
attr recordingmode vector(packetBytes)
attr source packetDropReasonIsNoRouteFound(packetDropped)
attr title "packet drop: no route found, packetBytes"
vector 9 WSN_Network.server.ipv4.ip packetDropUndefined:vector(packetBytes) ETV
attr interpolationmode none
attr recordingmode vector(packetBytes)
attr source packetDropReasonIsUndefined(packetDropped)
attr title "packet drop: undefined, packetBytes"
vector 10 WSN_Network.server.ipv4.arp arpRequestSent:vector(packetBytes) ETV
attr recordingmode vector(packetBytes)
attr source arpRequestSent
attr title "ARP request sent, packetBytes"
vector 11 WSN_Network.server.ipv4.arp arpReplySent:vector(packetBytes) ETV
attr recordingmode vector(packetBytes)
attr source arpReplySent
attr title "ARP replies sent, packetBytes"
vector 12 WSN_Network.server.udp packetSent:vector(packetBytes) ETV
attr interpolationmode none
attr recordingmode vector(packetBytes)
attr source packetSent
attr title "packets sent, packetBytes"
vector 13 WSN_Network.server.udp packetReceived:vector(packetBytes) ETV
attr interpolationmode none
attr recordingmode vector(packetBytes)
attr source packetReceived
attr title "packets received, packetBytes"
vector 14 WSN_Network.server.udp passedUpPk:vector(count) ETV
attr interpolationmode none
attr recordingmode vector(count)
attr source packetSentToUpper
attr title "packets passed up, count"
vector 15 WSN_Network.server.udp droppedPkWrongPort:vector(count) ETV
attr interpolationmode none
attr recordingmode vector(count)
attr source packetDropReasonIsNoPortFound(packetDropped)
attr title "packets dropped (wrong port), count"
vector 16 WSN_Network.server.udp droppedPkBadChecksum:vector(count) ETV
attr interpolationmode none
attr recordingmode vector(count)
attr source packetDropReasonIsIncorrectlyReceived(packetDropped)
attr title "packets dropped (checksum error), count"
vector 17 WSN_Network.server.app[0] packetReceived:vector(packetBytes) ETV
attr interpolationmode none
attr recordingmode vector(packetBytes)
attr source packetReceived
attr title "packets received, packetBytes"
vector 18 WSN_Network.server.app[0] packetSent:vector(packetBytes) ETV
attr interpolationmode none
attr recordingmode vector(packetBytes)
attr source packetSent
attr title "packets sent, packetBytes"
vector 19 WSN_Network.server.app[0] endToEndDelay:vector ETV
attr interpolationmode none
attr recordingmode vector
attr source dataAge(packetReceived)
attr title "end-to-end delay"
attr unit s
vector 20 WSN_Network.Sensor_Node[0].lo[0].lo rcvdPkFromHl:vector(packetBytes) ETV
attr interpolationmode none
attr recordingmode vector(packetBytes)
attr source packetReceivedFromUpper
attr title "packets received from higher layer, packetBytes"
vector 21 WSN_Network.Sensor_Node[0].lo[0].lo passedUpPk:vector(packetBytes) ETV
attr interpolationmode none
attr recordingmode vector(packetBytes)
attr source packetSentToUpper
attr title "packets passed to higher layer, packetBytes"
vector 22 WSN_Network.Sensor_Node[0].lo[0] packetDropInterfaceDown:vector(packetBytes) ETV
attr interpolationmode none
attr recordingmode vector(packetBytes)
attr source packetDropReasonIsInterfaceDown(packetDropped)
attr title "packet drops: interface down, packetBytes"
vector 23 WSN_Network.Sensor_Node[0].lo[0] packetDropNoCarrier:vector(packetBytes) ETV
attr interpolationmode none
attr recordingmode vector(packetBytes)
attr source packetDropReasonIsNoCarrier(packetDropped)
attr title "packet drops: no carrier, packetBytes"
vector 24 WSN_Network.Sensor_Node[0].wlan[0].mac.dcf.channelAccess.pendingQueue queueLength:vector ETV
attr autoWarmupFilter false
attr interpolationmode sample-hold
attr recordingmode vector
attr source "warmup(atomic(constant0(packetPushEnded) + count(packetPushStarted) - count(packetPulled) - count(packetRemoved) - count(packetDropped)))"
attr title "queue length"
attr unit pk
vector 25 WSN_Network.Sensor_Node[0].wlan[0].mac.dcf.channelAccess.pendingQueue queueBitLength:vector ETV
attr autoWarmupFilter false
attr interpolationmode sample-hold
attr recordingmode vector
attr source "warmup(atomic(constant0(packetPushEnded) + sum(packetLength(packetPushStarted)) - sum(packetLength(packetPulled)) - sum(packetLength(packetRemoved)) - sum(packetLength(packetDropped))))"
attr title "queue bit length"
attr unit b
vector 26 WSN_Network.Sensor_Node[0].wlan[0].mac.dcf.channelAccess.pendingQueue queueingTime:vector ETV
attr interpolationmode none
attr recordingmode vector
attr source queueingTime(packetPulled)
attr title "queueing times"
attr unit s
vector 27 WSN_Network.Sensor_Node[0].wlan[0].mac.dcf.channelAccess.pendingQueue incomingPacketLengths:vector ETV
attr interpolationmode none
attr recordingmode vector
attr source packetLength(packetPushStarted)
attr title "incoming packet lengths"
attr unit b
vector 28 WSN_Network.Sensor_Node[0].wlan[0].mac.dcf.channelAccess.pendingQueue incomingDataRate:vector ETV
attr interpolationmode linear
attr recordingmode vector
attr source throughput(packetPushStarted)
attr title "incoming datarate"
attr unit bps
vector 29 WSN_Network.Sensor_Node[0].wlan[0].mac.dcf.channelAccess.pendingQueue outgoingPacketLengths:vector ETV
attr interpolationmode none
attr recordingmode vector
attr source packetLength(packetPulled)
attr title "outgoing packet lengths"
attr unit b
vector 30 WSN_Network.Sensor_Node[0].wlan[0].mac.dcf.channelAccess.pendingQueue outgoingDataRate:vector ETV
attr interpolationmode linear
attr recordingmode vector
attr source throughput(packetPulled)
attr title "outgoing datarate"
attr unit bps
vector 31 WSN_Network.Sensor_Node[0].wlan[0].mac.dcf.channelAccess.pendingQueue droppedPacketLengthsQueueOverflow:vector ETV
attr interpolationmode none
attr recordingmode vector
attr source packetLength(packetDropReasonIsQueueOverflow(packetDropped))
attr title "dropped packet lengths: queue overflow"
attr unit b
vector 32 WSN_Network.Sensor_Node[0].wlan[0].mac.dcf.channelAccess.pendingQueue flowQueueingTime:vector ETV
attr interpolationmode none
attr recordingmode vector
attr source queueingTime(demuxFlow(packetPulled))
attr title "flow queueing times"
attr unit s
vector 33 WSN_Network.Sensor_Node[0].wlan[0].mac.dcf.channelAccess.pendingQueue flowIncomingDataRate:vector ETV
attr interpolationmode linear
attr recordingmode vector
attr source throughput(flowPacketLength(demuxFlow(packetPushStarted)))
attr title "flow specific incoming data rate"
attr unit bps
vector 34 WSN_Network.Sensor_Node[0].wlan[0].mac.dcf.channelAccess.pendingQueue flowOutgoingDataRate:vector ETV
attr interpolationmode linear
attr recordingmode vector
attr source throughput(flowPacketLength(demuxFlow(packetPulled)))
attr title "flow specific outgoing data rate"
attr unit bps
vector 35 WSN_Network.Sensor_Node[0].wlan[0].mac.dcf.channelAccess.inProgressFrames queueingTime:vector ETV
attr interpolationmode none
attr recordingmode vector
attr source queueingTime(packetDequeued)
attr title "queueing times"
vector 36 WSN_Network.Sensor_Node[0].wlan[0].mac.dcf.channelAccess.inProgressFrames queueLength:vector ETV
attr autoWarmupFilter false
attr interpolationmode sample-hold
attr recordingmode vector
attr source "warmup(count(packetEnqueued) - count(packetDequeued))"
attr title "queue length"
vector 37 WSN_Network.Sensor_Node[0].wlan[0].mac.dcf.channelAccess.contention backoffPeriodGenerated:vector ETV
attr interpolationmode none
attr recordingmode vector
attr title "backoff periods"
vector 38 WSN_Network.Sensor_Node[0].wlan[0].mac.dcf.channelAccess.contention backoffActive:vector ETV
attr autoWarmupFilter false
attr interpolationmode sample-hold
attr recordingmode vector
attr source warmup(count(backoffStarted)-count(backoffStopped))
attr title "backoff active"
vector 39 WSN_Network.Sensor_Node[0].wlan[0].mac.dcf.channelAccess.contention stateChanged:vector ETV
attr enum IDLE,DEFER,IFS_AND_BACKOFF
attr interpolationmode none
attr recordingmode vector
attr title "contention state changed"
attr type enum
vector 40 WSN_Network.Sensor_Node[0].wlan[0].mac.dcf.recipientMacDataService packetDropDuplicateDetected:vector(packetBytes) ETV
attr interpolationmode none
attr recordingmode vector(packetBytes)
attr source packetDropReasonIsDuplicateDetected(packetDropped)
attr title "packet drops: duplicate detected, packetBytes"
vector 41 WSN_Network.Sensor_Node[0].wlan[0].mac.dcf.recoveryProcedure contentionWindowChanged:vector ETV
attr interpolationmode sample-hold
attr recordingmode vector
attr title "contention window"
vector 42 WSN_Network.Sensor_Node[0].wlan[0].mac.dcf packetSentToPeer:vector(packetBytes) ETV
attr interpolationmode none
attr recordingmode vector(packetBytes)
attr title "packets sent, packetBytes"
vector 43 WSN_Network.Sensor_Node[0].wlan[0].mac.dcf packetSentToPeerUnicast:vector(packetBytes) ETV
attr interpolationmode none
attr recordingmode vector(packetBytes)
attr source ieee80211Unicast(packetSentToPeer)
attr title "packets sent: unicast, packetBytes"
vector 44 WSN_Network.Sensor_Node[0].wlan[0].mac.dcf packetSentToPeerMulticast:vector(packetBytes) ETV
attr interpolationmode none
attr recordingmode vector(packetBytes)
attr source ieee80211Multicast(packetSentToPeer)
attr title "packets sent: multicast, packetBytes"
vector 45 WSN_Network.Sensor_Node[0].wlan[0].mac.dcf packetSentToPeerBroadcast:vector(packetBytes) ETV
attr interpolationmode none
attr recordingmode vector(packetBytes)
attr source ieee80211Broadcast(packetSentToPeer)
attr title "packets sent: broadcast , packetBytes"
vector 46 WSN_Network.Sensor_Node[0].wlan[0].mac.dcf packetSentToPeerWithRetry:vector(packetBytes) ETV
attr interpolationmode none
attr recordingmode vector(packetBytes)
attr source ieee80211Retry(packetSentToPeer)
attr title "packets sent: with retry, packetBytes"
vector 47 WSN_Network.Sensor_Node[0].wlan[0].mac.dcf packetSentToPeerWithoutRetry:vector(packetBytes) ETV
attr interpolationmode none
attr recordingmode vector(packetBytes)
attr source ieee80211NotRetry(packetSentToPeer)
attr title "packets sent: without retry, packetBytes"
vector 48 WSN_Network.Sensor_Node[0].wlan[0].mac.dcf packetReceivedFromPeer:vector(packetBytes) ETV
attr interpolationmode none
attr recordingmode vector(packetBytes)
attr title "packets received, packetBytes"
vector 49 WSN_Network.Sensor_Node[0].wlan[0].mac.dcf packetReceivedFromPeerUnicast:vector(packetBytes) ETV
attr interpolationmode none
attr recordingmode vector(packetBytes)
attr source ieee80211Unicast(packetReceivedFromPeer)
attr title "packets received: unicast, packetBytes"
vector 50 WSN_Network.Sensor_Node[0].wlan[0].mac.dcf packetReceivedFromPeerMulticast:vector(packetBytes) ETV
attr interpolationmode none
attr recordingmode vector(packetBytes)
attr source ieee80211Multicast(packetReceivedFromPeer)
attr title "packets received: multicast, packetBytes"
vector 51 WSN_Network.Sensor_Node[0].wlan[0].mac.dcf packetReceivedFromPeerBroadcast:vector(packetBytes) ETV
attr interpolationmode none
attr recordingmode vector(packetBytes)
attr source ieee80211Broadcast(packetReceivedFromPeer)
attr title "packets received: broadcast, packetBytes"
vector 52 WSN_Network.Sensor_Node[0].wlan[0].mac.dcf packetReceivedFromPeerWithRetry:vector(packetBytes) ETV
attr interpolationmode none
attr recordingmode vector(packetBytes)
attr source ieee80211Retry(packetReceivedFromPeer)
attr title "packets received: with retry, packetBytes"
vector 53 WSN_Network.Sensor_Node[0].wlan[0].mac.dcf packetReceivedFromPeerWithoutRetry:vector(packetBytes) ETV
attr interpolationmode none
attr recordingmode vector(packetBytes)
attr source ieee80211NotRetry(packetReceivedFromPeer)
attr title "packets received: without retry, packetBytes"
vector 54 WSN_Network.Sensor_Node[0].wlan[0].mac.dcf packetDrop:vector(packetBytes) ETV
attr interpolationmode none
attr recordingmode vector(packetBytes)
attr source packetDropped
attr title "packet drops, packetBytes"
vector 55 WSN_Network.Sensor_Node[0].wlan[0].mac.dcf packetDropNotAddressedToUs:vector(packetBytes) ETV
attr interpolationmode none
attr recordingmode vector(packetBytes)
attr source packetDropReasonIsNotAddressedToUs(packetDropped)
attr title "packet drops: not addressed to us, packetBytes"
vector 56 WSN_Network.Sensor_Node[0].wlan[0].mac.dcf packetDropQueueOverflow:vector(packetBytes) ETV
attr interpolationmode none
attr recordingmode vector(packetBytes)
attr source packetDropReasonIsQueueOverflow(packetDropped)
attr title "packet drops: queue overflow, packetBytes"
vector 57 WSN_Network.Sensor_Node[0].wlan[0].mac.dcf packetDropRetryLimitReached:vector(packetBytes) ETV
attr interpolationmode none
attr recordingmode vector(packetBytes)
attr source packetDropReasonIsRetryLimitReached(packetDropped)
attr title "packet drops: retry limit reached, packetBytes"
vector 58 WSN_Network.Sensor_Node[0].wlan[0].mac.dcf frameSequenceActive:vector ETV
attr autoWarmupFilter false
attr interpolationmode sample-hold
attr recordingmode vector
attr source warmup(count(frameSequenceStarted)-count(frameSequenceFinished))
attr title "frame sequence active"
vector 59 WSN_Network.Sensor_Node[0].wlan[0].mac.dcf datarateSelected:vector ETV
attr interpolationmode none
attr recordingmode vector
attr title "datarates selected"
vector 60 WSN_Network.Sensor_Node[0].wlan[0].mac.rx nav:vector ETV
attr interpolationmode linear
attr recordingmode vector
attr source navChanged
attr title "network allocation vector"
vector 61 WSN_Network.Sensor_Node[0].wlan[0].mac packetSentToUpper:vector(packetBytes) ETV
attr interpolationmode none
attr recordingmode vector(packetBytes)
attr title "packets sent to upper layer, packetBytes"
vector 62 WSN_Network.Sensor_Node[0].wlan[0].mac packetSentToLower:vector(packetBytes) ETV
attr interpolationmode none
attr recordingmode vector(packetBytes)
attr title "packets sent to lower layer, packetBytes"
vector 63 WSN_Network.Sensor_Node[0].wlan[0].mac packetReceivedFromUpper:vector(packetBytes) ETV
attr interpolationmode none
attr recordingmode vector(packetBytes)
attr title "packets received from upper layer, packetBytes"
vector 64 WSN_Network.Sensor_Node[0].wlan[0].mac packetReceivedFromLower:vector(packetBytes) ETV
attr interpolationmode none
attr recordingmode vector(packetBytes)
attr title "packets received from lower layer, packetBytes"
vector 65 WSN_Network.Sensor_Node[0].wlan[0].mac packetDrop:vector(packetBytes) ETV
attr interpolationmode none
attr recordingmode vector(packetBytes)
attr source packetDropped
attr title "packet drops, packetBytes"
vector 66 WSN_Network.Sensor_Node[0].wlan[0].mac packetDropIncorrectlyReceived:vector(packetBytes) ETV
attr interpolationmode none
attr recordingmode vector(packetBytes)
attr source packetDropReasonIsIncorrectlyReceived(packetDropped)
attr title "packet drops: incorrectly received, packetBytes"
vector 67 WSN_Network.Sensor_Node[0].wlan[0].mac packetDropNotAddressedToUs:vector(packetBytes) ETV
attr interpolationmode none
attr recordingmode vector(packetBytes)
attr source packetDropReasonIsNotAddressedToUs(packetDropped)
attr title "packet drops: not addressed to us, packetBytes"
vector 68 WSN_Network.Sensor_Node[0].wlan[0].mac packetDropQueueOverflow:vector(packetBytes) ETV
attr interpolationmode none
attr recordingmode vector(packetBytes)
attr source packetDropReasonIsQueueOverflow(packetDropped)
attr title "packet drops: queue overflow, packetBytes"
vector 69 WSN_Network.Sensor_Node[0].wlan[0].mac packetDropRetryLimitReached:vector(packetBytes) ETV
attr interpolationmode none
attr recordingmode vector(packetBytes)
attr source packetDropReasonIsRetryLimitReached(packetDropped)
attr title "packet drops: retry limit reached, packetBytes"
vector 70 WSN_Network.Sensor_Node[0].wlan[0].mac packetDropDuplicateDetected:vector(packetBytes) ETV
attr interpolationmode none
attr recordingmode vector(packetBytes)
attr source packetDropReasonIsDuplicateDetected(packetDropped)
attr title "packet drops: duplicate detected, packetBytes"
vector 71 WSN_Network.Sensor_Node[0].wlan[0].mac packetDropOther:vector(packetBytes) ETV
attr interpolationmode none
attr recordingmode vector(packetBytes)
attr source packetDropReasonIsOther(packetDropped)
attr title "packet drops: other, packetBytes"
vector 72 WSN_Network.Sensor_Node[0].wlan[0].radio radioMode:vector ETV
attr interpolationmode sample-hold
attr recordingmode vector
attr source radioModeChanged
attr title "Radio mode"
vector 73 WSN_Network.Sensor_Node[0].wlan[0].radio receptionState:vector ETV
attr interpolationmode sample-hold
attr recordingmode vector
attr source receptionStateChanged
attr title "Radio reception state"
vector 74 WSN_Network.Sensor_Node[0].wlan[0].radio transmissionState:vector ETV
attr interpolationmode sample-hold
attr recordingmode vector
attr source transmissionStateChanged
attr title "Radio transmission state"
vector 75 WSN_Network.Sensor_Node[0].wlan[0].radio radioChannel:vector ETV
attr interpolationmode sample-hold
attr recordingmode vector
attr source radioChannelChanged
attr title "Radio channel"
vector 76 WSN_Network.Sensor_Node[0].wlan[0] packetDropInterfaceDown:vector(packetBytes) ETV
attr interpolationmode none
attr recordingmode vector(packetBytes)
attr source packetDropReasonIsInterfaceDown(packetDropped)
attr title "packet drops: interface down, packetBytes"
vector 77 WSN_Network.Sensor_Node[0].wlan[0] packetDropNoCarrier:vector(packetBytes) ETV
attr interpolationmode none
attr recordingmode vector(packetBytes)
attr source packetDropReasonIsNoCarrier(packetDropped)
attr title "packet drops: no carrier, packetBytes"
vector 78 WSN_Network.Sensor_Node[0].ipv4.ip packetDropAddressResolutionFailed:vector(packetBytes) ETV
attr interpolationmode none
attr recordingmode vector(packetBytes)
attr source packetDropReasonIsAddressResolutionFailed(packetDropped)
attr title "packet drop: address resolution failed, packetBytes"
vector 79 WSN_Network.Sensor_Node[0].ipv4.ip packetDropHopLimitReached:vector(packetBytes) ETV
attr interpolationmode none
attr recordingmode vector(packetBytes)
attr source packetDropReasonIsHopLimitReached(packetDropped)
attr title "packet drop: hop limit reached, packetBytes"
vector 80 WSN_Network.Sensor_Node[0].ipv4.ip packetDropForwardingDisabled:vector(packetBytes) ETV
attr interpolationmode none
attr recordingmode vector(packetBytes)
attr source packetDropReasonIsForwardingDisabled(packetDropped)
attr title "packet drop: forwarding disabled, packetBytes"
vector 81 WSN_Network.Sensor_Node[0].ipv4.ip packetDropNoInterfaceFound:vector(packetBytes) ETV
attr interpolationmode none
attr recordingmode vector(packetBytes)
attr source packetDropReasonIsNoInterfaceFound(packetDropped)
attr title "packet drop: no interface found, packetBytes"
vector 82 WSN_Network.Sensor_Node[0].ipv4.ip packetDropNoRouteFound:vector(packetBytes) ETV
attr interpolationmode none
attr recordingmode vector(packetBytes)
attr source packetDropReasonIsNoRouteFound(packetDropped)
attr title "packet drop: no route found, packetBytes"
vector 83 WSN_Network.Sensor_Node[0].ipv4.ip packetDropUndefined:vector(packetBytes) ETV
attr interpolationmode none
attr recordingmode vector(packetBytes)
attr source packetDropReasonIsUndefined(packetDropped)
attr title "packet drop: undefined, packetBytes"
vector 84 WSN_Network.Sensor_Node[0].ipv4.arp arpRequestSent:vector(packetBytes) ETV
attr recordingmode vector(packetBytes)
attr source arpRequestSent
attr title "ARP request sent, packetBytes"
vector 85 WSN_Network.Sensor_Node[0].ipv4.arp arpReplySent:vector(packetBytes) ETV
attr recordingmode vector(packetBytes)
attr source arpReplySent
attr title "ARP replies sent, packetBytes"
vector 86 WSN_Network.Sensor_Node[0].udp packetSent:vector(packetBytes) ETV
attr interpolationmode none
attr recordingmode vector(packetBytes)
attr source packetSent
attr title "packets sent, packetBytes"
vector 87 WSN_Network.Sensor_Node[0].udp packetReceived:vector(packetBytes) ETV
attr interpolationmode none
attr recordingmode vector(packetBytes)
attr source packetReceived
attr title "packets received, packetBytes"
vector 88 WSN_Network.Sensor_Node[0].udp passedUpPk:vector(count) ETV
attr interpolationmode none
attr recordingmode vector(count)
attr source packetSentToUpper
attr title "packets passed up, count"
vector 89 WSN_Network.Sensor_Node[0].udp droppedPkWrongPort:vector(count) ETV
attr interpolationmode none
attr recordingmode vector(count)
attr source packetDropReasonIsNoPortFound(packetDropped)
attr title "packets dropped (wrong port), count"
vector 90 WSN_Network.Sensor_Node[0].udp droppedPkBadChecksum:vector(count) ETV
attr interpolationmode none
attr recordingmode vector(count)
attr source packetDropReasonIsIncorrectlyReceived(packetDropped)
attr title "packets dropped (checksum error), count"
vector 91 WSN_Network.Sensor_Node[1].lo[0].lo rcvdPkFromHl:vector(packetBytes) ETV
attr interpolationmode none
attr recordingmode vector(packetBytes)
attr source packetReceivedFromUpper
attr title "packets received from higher layer, packetBytes"
vector 92 WSN_Network.Sensor_Node[1].lo[0].lo passedUpPk:vector(packetBytes) ETV
attr interpolationmode none
attr recordingmode vector(packetBytes)
attr source packetSentToUpper
attr title "packets passed to higher layer, packetBytes"
vector 93 WSN_Network.Sensor_Node[1].lo[0] packetDropInterfaceDown:vector(packetBytes) ETV
attr interpolationmode none
attr recordingmode vector(packetBytes)
attr source packetDropReasonIsInterfaceDown(packetDropped)
attr title "packet drops: interface down, packetBytes"
vector 94 WSN_Network.Sensor_Node[1].lo[0] packetDropNoCarrier:vector(packetBytes) ETV
attr interpolationmode none
attr recordingmode vector(packetBytes)
attr source packetDropReasonIsNoCarrier(packetDropped)
attr title "packet drops: no carrier, packetBytes"
vector 95 WSN_Network.Sensor_Node[1].wlan[0].mac.dcf.channelAccess.pendingQueue queueLength:vector ETV
attr autoWarmupFilter false
attr interpolationmode sample-hold
attr recordingmode vector
attr source "warmup(atomic(constant0(packetPushEnded) + count(packetPushStarted) - count(packetPulled) - count(packetRemoved) - count(packetDropped)))"
attr title "queue length"
attr unit pk
vector 96 WSN_Network.Sensor_Node[1].wlan[0].mac.dcf.channelAccess.pendingQueue queueBitLength:vector ETV
attr autoWarmupFilter false
attr interpolationmode sample-hold
attr recordingmode vector
attr source "warmup(atomic(constant0(packetPushEnded) + sum(packetLength(packetPushStarted)) - sum(packetLength(packetPulled)) - sum(packetLength(packetRemoved)) - sum(packetLength(packetDropped))))"
attr title "queue bit length"
attr unit b
vector 97 WSN_Network.Sensor_Node[1].wlan[0].mac.dcf.channelAccess.pendingQueue queueingTime:vector ETV
attr interpolationmode none
attr recordingmode vector
attr source queueingTime(packetPulled)
attr title "queueing times"
attr unit s
vector 98 WSN_Network.Sensor_Node[1].wlan[0].mac.dcf.channelAccess.pendingQueue incomingPacketLengths:vector ETV
attr interpolationmode none
attr recordingmode vector
attr source packetLength(packetPushStarted)
attr title "incoming packet lengths"
attr unit b
vector 99 WSN_Network.Sensor_Node[1].wlan[0].mac.dcf.channelAccess.pendingQueue incomingDataRate:vector ETV
attr interpolationmode linear
attr recordingmode vector
attr source throughput(packetPushStarted)
attr title "incoming datarate"
attr unit bps
vector 100 WSN_Network.Sensor_Node[1].wlan[0].mac.dcf.channelAccess.pendingQueue outgoingPacketLengths:vector ETV
attr interpolationmode none
attr recordingmode vector
attr source packetLength(packetPulled)
attr title "outgoing packet lengths"
attr unit b
vector 101 WSN_Network.Sensor_Node[1].wlan[0].mac.dcf.channelAccess.pendingQueue outgoingDataRate:vector ETV
attr interpolationmode linear
attr recordingmode vector
attr source throughput(packetPulled)
attr title "outgoing datarate"
attr unit bps
vector 102 WSN_Network.Sensor_Node[1].wlan[0].mac.dcf.channelAccess.pendingQueue droppedPacketLengthsQueueOverflow:vector ETV
attr interpolationmode none
attr recordingmode vector
attr source packetLength(packetDropReasonIsQueueOverflow(packetDropped))
attr title "dropped packet lengths: queue overflow"
attr unit b
vector 103 WSN_Network.Sensor_Node[1].wlan[0].mac.dcf.channelAccess.pendingQueue flowQueueingTime:vector ETV
attr interpolationmode none
attr recordingmode vector
attr source queueingTime(demuxFlow(packetPulled))
attr title "flow queueing times"
attr unit s
vector 104 WSN_Network.Sensor_Node[1].wlan[0].mac.dcf.channelAccess.pendingQueue flowIncomingDataRate:vector ETV
attr interpolationmode linear
attr recordingmode vector
attr source throughput(flowPacketLength(demuxFlow(packetPushStarted)))
attr title "flow specific incoming data rate"
attr unit bps
vector 105 WSN_Network.Sensor_Node[1].wlan[0].mac.dcf.channelAccess.pendingQueue flowOutgoingDataRate:vector ETV
attr interpolationmode linear
attr recordingmode vector
attr source throughput(flowPacketLength(demuxFlow(packetPulled)))
attr title "flow specific outgoing data rate"
attr unit bps
vector 106 WSN_Network.Sensor_Node[1].wlan[0].mac.dcf.channelAccess.inProgressFrames queueingTime:vector ETV
attr interpolationmode none
attr recordingmode vector
attr source queueingTime(packetDequeued)
attr title "queueing times"
vector 107 WSN_Network.Sensor_Node[1].wlan[0].mac.dcf.channelAccess.inProgressFrames queueLength:vector ETV
attr autoWarmupFilter false
attr interpolationmode sample-hold
attr recordingmode vector
attr source "warmup(count(packetEnqueued) - count(packetDequeued))"
attr title "queue length"
vector 108 WSN_Network.Sensor_Node[1].wlan[0].mac.dcf.channelAccess.contention backoffPeriodGenerated:vector ETV
attr interpolationmode none
attr recordingmode vector
attr title "backoff periods"
vector 109 WSN_Network.Sensor_Node[1].wlan[0].mac.dcf.channelAccess.contention backoffActive:vector ETV
attr autoWarmupFilter false
attr interpolationmode sample-hold
attr recordingmode vector
attr source warmup(count(backoffStarted)-count(backoffStopped))
attr title "backoff active"
vector 110 WSN_Network.Sensor_Node[1].wlan[0].mac.dcf.channelAccess.contention stateChanged:vector ETV
attr enum IDLE,DEFER,IFS_AND_BACKOFF
attr interpolationmode none
attr recordingmode vector
attr title "contention state changed"
attr type enum
vector 111 WSN_Network.Sensor_Node[1].wlan[0].mac.dcf.recipientMacDataService packetDropDuplicateDetected:vector(packetBytes) ETV
attr interpolationmode none
attr recordingmode vector(packetBytes)
attr source packetDropReasonIsDuplicateDetected(packetDropped)
attr title "packet drops: duplicate detected, packetBytes"
vector 112 WSN_Network.Sensor_Node[1].wlan[0].mac.dcf.recoveryProcedure contentionWindowChanged:vector ETV
attr interpolationmode sample-hold
attr recordingmode vector
attr title "contention window"
vector 113 WSN_Network.Sensor_Node[1].wlan[0].mac.dcf packetSentToPeer:vector(packetBytes) ETV
attr interpolationmode none
attr recordingmode vector(packetBytes)
attr title "packets sent, packetBytes"
vector 114 WSN_Network.Sensor_Node[1].wlan[0].mac.dcf packetSentToPeerUnicast:vector(packetBytes) ETV
attr interpolationmode none
attr recordingmode vector(packetBytes)
attr source ieee80211Unicast(packetSentToPeer)
attr title "packets sent: unicast, packetBytes"
vector 115 WSN_Network.Sensor_Node[1].wlan[0].mac.dcf packetSentToPeerMulticast:vector(packetBytes) ETV
attr interpolationmode none
attr recordingmode vector(packetBytes)
attr source ieee80211Multicast(packetSentToPeer)
attr title "packets sent: multicast, packetBytes"
vector 116 WSN_Network.Sensor_Node[1].wlan[0].mac.dcf packetSentToPeerBroadcast:vector(packetBytes) ETV
attr interpolationmode none
attr recordingmode vector(packetBytes)
attr source ieee80211Broadcast(packetSentToPeer)
attr title "packets sent: broadcast , packetBytes"
vector 117 WSN_Network.Sensor_Node[1].wlan[0].mac.dcf packetSentToPeerWithRetry:vector(packetBytes) ETV
attr interpolationmode none
attr recordingmode vector(packetBytes)
attr source ieee80211Retry(packetSentToPeer)
attr title "packets sent: with retry, packetBytes"
vector 118 WSN_Network.Sensor_Node[1].wlan[0].mac.dcf packetSentToPeerWithoutRetry:vector(packetBytes) ETV
attr interpolationmode none
attr recordingmode vector(packetBytes)
attr source ieee80211NotRetry(packetSentToPeer)
attr title "packets sent: without retry, packetBytes"
vector 119 WSN_Network.Sensor_Node[1].wlan[0].mac.dcf packetReceivedFromPeer:vector(packetBytes) ETV
attr interpolationmode none
attr recordingmode vector(packetBytes)
attr title "packets received, packetBytes"
vector 120 WSN_Network.Sensor_Node[1].wlan[0].mac.dcf packetReceivedFromPeerUnicast:vector(packetBytes) ETV
attr interpolationmode none
attr recordingmode vector(packetBytes)
attr source ieee80211Unicast(packetReceivedFromPeer)
attr title "packets received: unicast, packetBytes"
vector 121 WSN_Network.Sensor_Node[1].wlan[0].mac.dcf packetReceivedFromPeerMulticast:vector(packetBytes) ETV
attr interpolationmode none
attr recordingmode vector(packetBytes)
attr source ieee80211Multicast(packetReceivedFromPeer)
attr title "packets received: multicast, packetBytes"
vector 122 WSN_Network.Sensor_Node[1].wlan[0].mac.dcf packetReceivedFromPeerBroadcast:vector(packetBytes) ETV
attr interpolationmode none
attr recordingmode vector(packetBytes)
attr source ieee80211Broadcast(packetReceivedFromPeer)
attr title "packets received: broadcast, packetBytes"
vector 123 WSN_Network.Sensor_Node[1].wlan[0].mac.dcf packetReceivedFromPeerWithRetry:vector(packetBytes) ETV
attr interpolationmode none
attr recordingmode vector(packetBytes)
attr source ieee80211Retry(packetReceivedFromPeer)
attr title "packets received: with retry, packetBytes"
vector 124 WSN_Network.Sensor_Node[1].wlan[0].mac.dcf packetReceivedFromPeerWithoutRetry:vector(packetBytes) ETV
attr interpolationmode none
attr recordingmode vector(packetBytes)
attr source ieee80211NotRetry(packetReceivedFromPeer)
attr title "packets received: without retry, packetBytes"
vector 125 WSN_Network.Sensor_Node[1].wlan[0].mac.dcf packetDrop:vector(packetBytes) ETV
attr interpolationmode none
attr recordingmode vector(packetBytes)
attr source packetDropped
attr title "packet drops, packetBytes"
vector 126 WSN_Network.Sensor_Node[1].wlan[0].mac.dcf packetDropNotAddressedToUs:vector(packetBytes) ETV
attr interpolationmode none
attr recordingmode vector(packetBytes)
attr source packetDropReasonIsNotAddressedToUs(packetDropped)
attr title "packet drops: not addressed to us, packetBytes"
vector 127 WSN_Network.Sensor_Node[1].wlan[0].mac.dcf packetDropQueueOverflow:vector(packetBytes) ETV
attr interpolationmode none
attr recordingmode vector(packetBytes)
attr source packetDropReasonIsQueueOverflow(packetDropped)
attr title "packet drops: queue overflow, packetBytes"
vector 128 WSN_Network.Sensor_Node[1].wlan[0].mac.dcf packetDropRetryLimitReached:vector(packetBytes) ETV
attr interpolationmode none
attr recordingmode vector(packetBytes)
attr source packetDropReasonIsRetryLimitReached(packetDropped)
attr title "packet drops: retry limit reached, packetBytes"
vector 129 WSN_Network.Sensor_Node[1].wlan[0].mac.dcf frameSequenceActive:vector ETV
attr autoWarmupFilter false
attr interpolationmode sample-hold
attr recordingmode vector
attr source warmup(count(frameSequenceStarted)-count(frameSequenceFinished))
attr title "frame sequence active"
vector 130 WSN_Network.Sensor_Node[1].wlan[0].mac.dcf datarateSelected:vector ETV
attr interpolationmode none
attr recordingmode vector
attr title "datarates selected"
vector 131 WSN_Network.Sensor_Node[1].wlan[0].mac.rx nav:vector ETV
attr interpolationmode linear
attr recordingmode vector
attr source navChanged
attr title "network allocation vector"
vector 132 WSN_Network.Sensor_Node[1].wlan[0].mac packetSentToUpper:vector(packetBytes) ETV
attr interpolationmode none
attr recordingmode vector(packetBytes)
attr title "packets sent to upper layer, packetBytes"
vector 133 WSN_Network.Sensor_Node[1].wlan[0].mac packetSentToLower:vector(packetBytes) ETV
attr interpolationmode none
attr recordingmode vector(packetBytes)
attr title "packets sent to lower layer, packetBytes"
vector 134 WSN_Network.Sensor_Node[1].wlan[0].mac packetReceivedFromUpper:vector(packetBytes) ETV
attr interpolationmode none
attr recordingmode vector(packetBytes)
attr title "packets received from upper layer, packetBytes"
vector 135 WSN_Network.Sensor_Node[1].wlan[0].mac packetReceivedFromLower:vector(packetBytes) ETV
attr interpolationmode none
attr recordingmode vector(packetBytes)
attr title "packets received from lower layer, packetBytes"
vector 136 WSN_Network.Sensor_Node[1].wlan[0].mac packetDrop:vector(packetBytes) ETV
attr interpolationmode none
attr recordingmode vector(packetBytes)
attr source packetDropped
attr title "packet drops, packetBytes"
vector 137 WSN_Network.Sensor_Node[1].wlan[0].mac packetDropIncorrectlyReceived:vector(packetBytes) ETV
attr interpolationmode none
attr recordingmode vector(packetBytes)
attr source packetDropReasonIsIncorrectlyReceived(packetDropped)
attr title "packet drops: incorrectly received, packetBytes"
vector 138 WSN_Network.Sensor_Node[1].wlan[0].mac packetDropNotAddressedToUs:vector(packetBytes) ETV
attr interpolationmode none
attr recordingmode vector(packetBytes)
attr source packetDropReasonIsNotAddressedToUs(packetDropped)
attr title "packet drops: not addressed to us, packetBytes"
vector 139 WSN_Network.Sensor_Node[1].wlan[0].mac packetDropQueueOverflow:vector(packetBytes) ETV
attr interpolationmode none
attr recordingmode vector(packetBytes)
attr source packetDropReasonIsQueueOverflow(packetDropped)
attr title "packet drops: queue overflow, packetBytes"
vector 140 WSN_Network.Sensor_Node[1].wlan[0].mac packetDropRetryLimitReached:vector(packetBytes) ETV
attr interpolationmode none
attr recordingmode vector(packetBytes)
attr source packetDropReasonIsRetryLimitReached(packetDropped)
attr title "packet drops: retry limit reached, packetBytes"
vector 141 WSN_Network.Sensor_Node[1].wlan[0].mac packetDropDuplicateDetected:vector(packetBytes) ETV
attr interpolationmode none
attr recordingmode vector(packetBytes)
attr source packetDropReasonIsDuplicateDetected(packetDropped)
attr title "packet drops: duplicate detected, packetBytes"
vector 142 WSN_Network.Sensor_Node[1].wlan[0].mac packetDropOther:vector(packetBytes) ETV
attr interpolationmode none
attr recordingmode vector(packetBytes)
attr source packetDropReasonIsOther(packetDropped)
attr title "packet drops: other, packetBytes"
vector 143 WSN_Network.Sensor_Node[1].wlan[0].radio radioMode:vector ETV
attr interpolationmode sample-hold
attr recordingmode vector
attr source radioModeChanged
attr title "Radio mode"
vector 144 WSN_Network.Sensor_Node[1].wlan[0].radio receptionState:vector ETV
attr interpolationmode sample-hold
attr recordingmode vector
attr source receptionStateChanged
attr title "Radio reception state"
vector 145 WSN_Network.Sensor_Node[1].wlan[0].radio transmissionState:vector ETV
attr interpolationmode sample-hold
attr recordingmode vector
attr source transmissionStateChanged
attr title "Radio transmission state"
vector 146 WSN_Network.Sensor_Node[1].wlan[0].radio radioChannel:vector ETV
attr interpolationmode sample-hold
attr recordingmode vector
attr source radioChannelChanged
attr title "Radio channel"
vector 147 WSN_Network.Sensor_Node[1].wlan[0] packetDropInterfaceDown:vector(packetBytes) ETV
attr interpolationmode none
attr recordingmode vector(packetBytes)
attr source packetDropReasonIsInterfaceDown(packetDropped)
attr title "packet drops: interface down, packetBytes"
vector 148 WSN_Network.Sensor_Node[1].wlan[0] packetDropNoCarrier:vector(packetBytes) ETV
attr interpolationmode none
attr recordingmode vector(packetBytes)
attr source packetDropReasonIsNoCarrier(packetDropped)
attr title "packet drops: no carrier, packetBytes"
vector 149 WSN_Network.Sensor_Node[1].ipv4.ip packetDropAddressResolutionFailed:vector(packetBytes) ETV
attr interpolationmode none
attr recordingmode vector(packetBytes)
attr source packetDropReasonIsAddressResolutionFailed(packetDropped)
attr title "packet drop: address resolution failed, packetBytes"
vector 150 WSN_Network.Sensor_Node[1].ipv4.ip packetDropHopLimitReached:vector(packetBytes) ETV
attr interpolationmode none
attr recordingmode vector(packetBytes)
attr source packetDropReasonIsHopLimitReached(packetDropped)
attr title "packet drop: hop limit reached, packetBytes"
vector 151 WSN_Network.Sensor_Node[1].ipv4.ip packetDropForwardingDisabled:vector(packetBytes) ETV
attr interpolationmode none
attr recordingmode vector(packetBytes)
attr source packetDropReasonIsForwardingDisabled(packetDropped)
attr title "packet drop: forwarding disabled, packetBytes"
vector 152 WSN_Network.Sensor_Node[1].ipv4.ip packetDropNoInterfaceFound:vector(packetBytes) ETV
attr interpolationmode none
attr recordingmode vector(packetBytes)
attr source packetDropReasonIsNoInterfaceFound(packetDropped)
attr title "packet drop: no interface found, packetBytes"
vector 153 WSN_Network.Sensor_Node[1].ipv4.ip packetDropNoRouteFound:vector(packetBytes) ETV
attr interpolationmode none
attr recordingmode vector(packetBytes)
attr source packetDropReasonIsNoRouteFound(packetDropped)
attr title "packet drop: no route found, packetBytes"
vector 154 WSN_Network.Sensor_Node[1].ipv4.ip packetDropUndefined:vector(packetBytes) ETV
attr interpolationmode none
attr recordingmode vector(packetBytes)
attr source packetDropReasonIsUndefined(packetDropped)
attr title "packet drop: undefined, packetBytes"
vector 155 WSN_Network.Sensor_Node[1].ipv4.arp arpRequestSent:vector(packetBytes) ETV
attr recordingmode vector(packetBytes)
attr source arpRequestSent
attr title "ARP request sent, packetBytes"
vector 156 WSN_Network.Sensor_Node[1].ipv4.arp arpReplySent:vector(packetBytes) ETV
attr recordingmode vector(packetBytes)
attr source arpReplySent
attr title "ARP replies sent, packetBytes"
vector 157 WSN_Network.Sensor_Node[1].udp packetSent:vector(packetBytes) ETV
attr interpolationmode none
attr recordingmode vector(packetBytes)
attr source packetSent
attr title "packets sent, packetBytes"
vector 158 WSN_Network.Sensor_Node[1].udp packetReceived:vector(packetBytes) ETV
attr interpolationmode none
attr recordingmode vector(packetBytes)
attr source packetReceived
attr title "packets received, packetBytes"
vector 159 WSN_Network.Sensor_Node[1].udp passedUpPk:vector(count) ETV
attr interpolationmode none
attr recordingmode vector(count)
attr source packetSentToUpper
attr title "packets passed up, count"
vector 160 WSN_Network.Sensor_Node[1].udp droppedPkWrongPort:vector(count) ETV
attr interpolationmode none
attr recordingmode vector(count)
attr source packetDropReasonIsNoPortFound(packetDropped)
attr title "packets dropped (wrong port), count"
vector 161 WSN_Network.Sensor_Node[1].udp droppedPkBadChecksum:vector(count) ETV
attr interpolationmode none
attr recordingmode vector(count)
attr source packetDropReasonIsIncorrectlyReceived(packetDropped)
attr title "packets dropped (checksum error), count"
vector 162 WSN_Network.Sensor_Node[1].app[0] rtt:vector ETV
attr interpolationmode none
attr recordingmode vector
attr title "ping round-trip time"
attr unit s
vector 163 WSN_Network.Sensor_Node[1].app[0] numLost:vector ETV
attr interpolationmode none
attr recordingmode vector
attr title "pings lost"
vector 164 WSN_Network.Sensor_Node[1].app[0] numOutOfOrderArrivals:vector ETV
attr interpolationmode none
attr recordingmode vector
attr title "ping out-of-order arrivals"
vector 165 WSN_Network.Sensor_Node[1].app[0] pingTxSeq:vector ETV
attr interpolationmode none
attr recordingmode vector
attr title "ping tx seq"
vector 166 WSN_Network.Sensor_Node[1].app[0] pingRxSeq:vector ETV
attr interpolationmode none
attr recordingmode vector
attr title "ping rx seq"
vector 167 WSN_Network.Sensor_Node[1].app[1] rtt:vector ETV
attr interpolationmode none
attr recordingmode vector
attr title "ping round-trip time"
attr unit s
vector 168 WSN_Network.Sensor_Node[1].app[1] numLost:vector ETV
attr interpolationmode none
attr recordingmode vector
attr title "pings lost"
vector 169 WSN_Network.Sensor_Node[1].app[1] numOutOfOrderArrivals:vector ETV
attr interpolationmode none
attr recordingmode vector
attr title "ping out-of-order arrivals"
vector 170 WSN_Network.Sensor_Node[1].app[1] pingTxSeq:vector ETV
attr interpolationmode none
attr recordingmode vector
attr title "ping tx seq"
vector 171 WSN_Network.Sensor_Node[1].app[1] pingRxSeq:vector ETV
attr interpolationmode none
attr recordingmode vector
attr title "ping rx seq"
vector 172 WSN_Network.Sensor_Node[2].lo[0].lo rcvdPkFromHl:vector(packetBytes) ETV
attr interpolationmode none
attr recordingmode vector(packetBytes)
attr source packetReceivedFromUpper
attr title "packets received from higher layer, packetBytes"
vector 173 WSN_Network.Sensor_Node[2].lo[0].lo passedUpPk:vector(packetBytes) ETV
attr interpolationmode none
attr recordingmode vector(packetBytes)
attr source packetSentToUpper
attr title "packets passed to higher layer, packetBytes"
vector 174 WSN_Network.Sensor_Node[2].lo[0] packetDropInterfaceDown:vector(packetBytes) ETV
attr interpolationmode none
attr recordingmode vector(packetBytes)
attr source packetDropReasonIsInterfaceDown(packetDropped)
attr title "packet drops: interface down, packetBytes"
vector 175 WSN_Network.Sensor_Node[2].lo[0] packetDropNoCarrier:vector(packetBytes) ETV
attr interpolationmode none
attr recordingmode vector(packetBytes)
attr source packetDropReasonIsNoCarrier(packetDropped)
attr title "packet drops: no carrier, packetBytes"
vector 176 WSN_Network.Sensor_Node[2].wlan[0].mac.dcf.channelAccess.pendingQueue queueLength:vector ETV
attr autoWarmupFilter false
attr interpolationmode sample-hold
attr recordingmode vector
attr source "warmup(atomic(constant0(packetPushEnded) + count(packetPushStarted) - count(packetPulled) - count(packetRemoved) - count(packetDropped)))"
attr title "queue length"
attr unit pk
vector 177 WSN_Network.Sensor_Node[2].wlan[0].mac.dcf.channelAccess.pendingQueue queueBitLength:vector ETV
attr autoWarmupFilter false
attr interpolationmode sample-hold
attr recordingmode vector
attr source "warmup(atomic(constant0(packetPushEnded) + sum(packetLength(packetPushStarted)) - sum(packetLength(packetPulled)) - sum(packetLength(packetRemoved)) - sum(packetLength(packetDropped))))"
attr title "queue bit length"
attr unit b
vector 178 WSN_Network.Sensor_Node[2].wlan[0].mac.dcf.channelAccess.pendingQueue queueingTime:vector ETV
attr interpolationmode none
attr recordingmode vector
attr source queueingTime(packetPulled)
attr title "queueing times"
attr unit s
vector 179 WSN_Network.Sensor_Node[2].wlan[0].mac.dcf.channelAccess.pendingQueue incomingPacketLengths:vector ETV
attr interpolationmode none
attr recordingmode vector
attr source packetLength(packetPushStarted)
attr title "incoming packet lengths"
attr unit b
vector 180 WSN_Network.Sensor_Node[2].wlan[0].mac.dcf.channelAccess.pendingQueue incomingDataRate:vector ETV
attr interpolationmode linear
attr recordingmode vector
attr source throughput(packetPushStarted)
attr title "incoming datarate"
attr unit bps
vector 181 WSN_Network.Sensor_Node[2].wlan[0].mac.dcf.channelAccess.pendingQueue outgoingPacketLengths:vector ETV
attr interpolationmode none
attr recordingmode vector
attr source packetLength(packetPulled)
attr title "outgoing packet lengths"
attr unit b
vector 182 WSN_Network.Sensor_Node[2].wlan[0].mac.dcf.channelAccess.pendingQueue outgoingDataRate:vector ETV
attr interpolationmode linear
attr recordingmode vector
attr source throughput(packetPulled)
attr title "outgoing datarate"
attr unit bps
vector 183 WSN_Network.Sensor_Node[2].wlan[0].mac.dcf.channelAccess.pendingQueue droppedPacketLengthsQueueOverflow:vector ETV
attr interpolationmode none
attr recordingmode vector
attr source packetLength(packetDropReasonIsQueueOverflow(packetDropped))
attr title "dropped packet lengths: queue overflow"
attr unit b
vector 184 WSN_Network.Sensor_Node[2].wlan[0].mac.dcf.channelAccess.pendingQueue flowQueueingTime:vector ETV
attr interpolationmode none
attr recordingmode vector
attr source queueingTime(demuxFlow(packetPulled))
attr title "flow queueing times"
attr unit s
vector 185 WSN_Network.Sensor_Node[2].wlan[0].mac.dcf.channelAccess.pendingQueue flowIncomingDataRate:vector ETV
attr interpolationmode linear
attr recordingmode vector
attr source throughput(flowPacketLength(demuxFlow(packetPushStarted)))
attr title "flow specific incoming data rate"
attr unit bps
vector 186 WSN_Network.Sensor_Node[2].wlan[0].mac.dcf.channelAccess.pendingQueue flowOutgoingDataRate:vector ETV
attr interpolationmode linear
attr recordingmode vector
attr source throughput(flowPacketLength(demuxFlow(packetPulled)))
attr title "flow specific outgoing data rate"
attr unit bps
vector 187 WSN_Network.Sensor_Node[2].wlan[0].mac.dcf.channelAccess.inProgressFrames queueingTime:vector ETV
attr interpolationmode none
attr recordingmode vector
attr source queueingTime(packetDequeued)
attr title "queueing times"
vector 188 WSN_Network.Sensor_Node[2].wlan[0].mac.dcf.channelAccess.inProgressFrames queueLength:vector ETV
attr autoWarmupFilter false
attr interpolationmode sample-hold
attr recordingmode vector
attr source "warmup(count(packetEnqueued) - count(packetDequeued))"
attr title "queue length"
vector 189 WSN_Network.Sensor_Node[2].wlan[0].mac.dcf.channelAccess.contention backoffPeriodGenerated:vector ETV
attr interpolationmode none
attr recordingmode vector
attr title "backoff periods"
vector 190 WSN_Network.Sensor_Node[2].wlan[0].mac.dcf.channelAccess.contention backoffActive:vector ETV
attr autoWarmupFilter false
attr interpolationmode sample-hold
attr recordingmode vector
attr source warmup(count(backoffStarted)-count(backoffStopped))
attr title "backoff active"
vector 191 WSN_Network.Sensor_Node[2].wlan[0].mac.dcf.channelAccess.contention stateChanged:vector ETV
attr enum IDLE,DEFER,IFS_AND_BACKOFF
attr interpolationmode none
attr recordingmode vector
attr title "contention state changed"
attr type enum
vector 192 WSN_Network.Sensor_Node[2].wlan[0].mac.dcf.recipientMacDataService packetDropDuplicateDetected:vector(packetBytes) ETV
attr interpolationmode none
attr recordingmode vector(packetBytes)
attr source packetDropReasonIsDuplicateDetected(packetDropped)
attr title "packet drops: duplicate detected, packetBytes"
vector 193 WSN_Network.Sensor_Node[2].wlan[0].mac.dcf.recoveryProcedure contentionWindowChanged:vector ETV
attr interpolationmode sample-hold
attr recordingmode vector
attr title "contention window"
vector 194 WSN_Network.Sensor_Node[2].wlan[0].mac.dcf packetSentToPeer:vector(packetBytes) ETV
attr interpolationmode none
attr recordingmode vector(packetBytes)
attr title "packets sent, packetBytes"
vector 195 WSN_Network.Sensor_Node[2].wlan[0].mac.dcf packetSentToPeerUnicast:vector(packetBytes) ETV
attr interpolationmode none
attr recordingmode vector(packetBytes)
attr source ieee80211Unicast(packetSentToPeer)
attr title "packets sent: unicast, packetBytes"
vector 196 WSN_Network.Sensor_Node[2].wlan[0].mac.dcf packetSentToPeerMulticast:vector(packetBytes) ETV
attr interpolationmode none
attr recordingmode vector(packetBytes)
attr source ieee80211Multicast(packetSentToPeer)
attr title "packets sent: multicast, packetBytes"
vector 197 WSN_Network.Sensor_Node[2].wlan[0].mac.dcf packetSentToPeerBroadcast:vector(packetBytes) ETV
attr interpolationmode none
attr recordingmode vector(packetBytes)
attr source ieee80211Broadcast(packetSentToPeer)
attr title "packets sent: broadcast , packetBytes"
vector 198 WSN_Network.Sensor_Node[2].wlan[0].mac.dcf packetSentToPeerWithRetry:vector(packetBytes) ETV
attr interpolationmode none
attr recordingmode vector(packetBytes)
attr source ieee80211Retry(packetSentToPeer)
attr title "packets sent: with retry, packetBytes"
vector 199 WSN_Network.Sensor_Node[2].wlan[0].mac.dcf packetSentToPeerWithoutRetry:vector(packetBytes) ETV
attr interpolationmode none
attr recordingmode vector(packetBytes)
attr source ieee80211NotRetry(packetSentToPeer)
attr title "packets sent: without retry, packetBytes"
vector 200 WSN_Network.Sensor_Node[2].wlan[0].mac.dcf packetReceivedFromPeer:vector(packetBytes) ETV
attr interpolationmode none
attr recordingmode vector(packetBytes)
attr title "packets received, packetBytes"
vector 201 WSN_Network.Sensor_Node[2].wlan[0].mac.dcf packetReceivedFromPeerUnicast:vector(packetBytes) ETV
attr interpolationmode none
attr recordingmode vector(packetBytes)
attr source ieee80211Unicast(packetReceivedFromPeer)
attr title "packets received: unicast, packetBytes"
vector 202 WSN_Network.Sensor_Node[2].wlan[0].mac.dcf packetReceivedFromPeerMulticast:vector(packetBytes) ETV
attr interpolationmode none
attr recordingmode vector(packetBytes)
attr source ieee80211Multicast(packetReceivedFromPeer)
attr title "packets received: multicast, packetBytes"
vector 203 WSN_Network.Sensor_Node[2].wlan[0].mac.dcf packetReceivedFromPeerBroadcast:vector(packetBytes) ETV
attr interpolationmode none
attr recordingmode vector(packetBytes)
attr source ieee80211Broadcast(packetReceivedFromPeer)
attr title "packets received: broadcast, packetBytes"
vector 204 WSN_Network.Sensor_Node[2].wlan[0].mac.dcf packetReceivedFromPeerWithRetry:vector(packetBytes) ETV
attr interpolationmode none
attr recordingmode vector(packetBytes)
attr source ieee80211Retry(packetReceivedFromPeer)
attr title "packets received: with retry, packetBytes"
vector 205 WSN_Network.Sensor_Node[2].wlan[0].mac.dcf packetReceivedFromPeerWithoutRetry:vector(packetBytes) ETV
attr interpolationmode none
attr recordingmode vector(packetBytes)
attr source ieee80211NotRetry(packetReceivedFromPeer)
attr title "packets received: without retry, packetBytes"
vector 206 WSN_Network.Sensor_Node[2].wlan[0].mac.dcf packetDrop:vector(packetBytes) ETV
attr interpolationmode none
attr recordingmode vector(packetBytes)
attr source packetDropped
attr title "packet drops, packetBytes"
vector 207 WSN_Network.Sensor_Node[2].wlan[0].mac.dcf packetDropNotAddressedToUs:vector(packetBytes) ETV
attr interpolationmode none
attr recordingmode vector(packetBytes)
attr source packetDropReasonIsNotAddressedToUs(packetDropped)
attr title "packet drops: not addressed to us, packetBytes"
vector 208 WSN_Network.Sensor_Node[2].wlan[0].mac.dcf packetDropQueueOverflow:vector(packetBytes) ETV
attr interpolationmode none
attr recordingmode vector(packetBytes)
attr source packetDropReasonIsQueueOverflow(packetDropped)
attr title "packet drops: queue overflow, packetBytes"
vector 209 WSN_Network.Sensor_Node[2].wlan[0].mac.dcf packetDropRetryLimitReached:vector(packetBytes) ETV
attr interpolationmode none
attr recordingmode vector(packetBytes)
attr source packetDropReasonIsRetryLimitReached(packetDropped)
attr title "packet drops: retry limit reached, packetBytes"
vector 210 WSN_Network.Sensor_Node[2].wlan[0].mac.dcf frameSequenceActive:vector ETV
attr autoWarmupFilter false
attr interpolationmode sample-hold
attr recordingmode vector
attr source warmup(count(frameSequenceStarted)-count(frameSequenceFinished))
attr title "frame sequence active"
vector 211 WSN_Network.Sensor_Node[2].wlan[0].mac.dcf datarateSelected:vector ETV
attr interpolationmode none
attr recordingmode vector
attr title "datarates selected"
vector 212 WSN_Network.Sensor_Node[2].wlan[0].mac.rx nav:vector ETV
attr interpolationmode linear
attr recordingmode vector
attr source navChanged
attr title "network allocation vector"
vector 213 WSN_Network.Sensor_Node[2].wlan[0].mac packetSentToUpper:vector(packetBytes) ETV
attr interpolationmode none
attr recordingmode vector(packetBytes)
attr title "packets sent to upper layer, packetBytes"
vector 214 WSN_Network.Sensor_Node[2].wlan[0].mac packetSentToLower:vector(packetBytes) ETV
attr interpolationmode none
attr recordingmode vector(packetBytes)
attr title "packets sent to lower layer, packetBytes"
vector 215 WSN_Network.Sensor_Node[2].wlan[0].mac packetReceivedFromUpper:vector(packetBytes) ETV
attr interpolationmode none
attr recordingmode vector(packetBytes)
attr title "packets received from upper layer, packetBytes"
vector 216 WSN_Network.Sensor_Node[2].wlan[0].mac packetReceivedFromLower:vector(packetBytes) ETV
attr interpolationmode none
attr recordingmode vector(packetBytes)
attr title "packets received from lower layer, packetBytes"
vector 217 WSN_Network.Sensor_Node[2].wlan[0].mac packetDrop:vector(packetBytes) ETV
attr interpolationmode none
attr recordingmode vector(packetBytes)
attr source packetDropped
attr title "packet drops, packetBytes"
vector 218 WSN_Network.Sensor_Node[2].wlan[0].mac packetDropIncorrectlyReceived:vector(packetBytes) ETV
attr interpolationmode none
attr recordingmode vector(packetBytes)
attr source packetDropReasonIsIncorrectlyReceived(packetDropped)
attr title "packet drops: incorrectly received, packetBytes"
vector 219 WSN_Network.Sensor_Node[2].wlan[0].mac packetDropNotAddressedToUs:vector(packetBytes) ETV
attr interpolationmode none
attr recordingmode vector(packetBytes)
attr source packetDropReasonIsNotAddressedToUs(packetDropped)
attr title "packet drops: not addressed to us, packetBytes"
vector 220 WSN_Network.Sensor_Node[2].wlan[0].mac packetDropQueueOverflow:vector(packetBytes) ETV
attr interpolationmode none
attr recordingmode vector(packetBytes)
attr source packetDropReasonIsQueueOverflow(packetDropped)
attr title "packet drops: queue overflow, packetBytes"
vector 221 WSN_Network.Sensor_Node[2].wlan[0].mac packetDropRetryLimitReached:vector(packetBytes) ETV
attr interpolationmode none
attr recordingmode vector(packetBytes)
attr source packetDropReasonIsRetryLimitReached(packetDropped)
attr title "packet drops: retry limit reached, packetBytes"
vector 222 WSN_Network.Sensor_Node[2].wlan[0].mac packetDropDuplicateDetected:vector(packetBytes) ETV
attr interpolationmode none
attr recordingmode vector(packetBytes)
attr source packetDropReasonIsDuplicateDetected(packetDropped)
attr title "packet drops: duplicate detected, packetBytes"
vector 223 WSN_Network.Sensor_Node[2].wlan[0].mac packetDropOther:vector(packetBytes) ETV
attr interpolationmode none
attr recordingmode vector(packetBytes)
attr source packetDropReasonIsOther(packetDropped)
attr title "packet drops: other, packetBytes"
vector 224 WSN_Network.Sensor_Node[2].wlan[0].radio radioMode:vector ETV
attr interpolationmode sample-hold
attr recordingmode vector
attr source radioModeChanged
attr title "Radio mode"
vector 225 WSN_Network.Sensor_Node[2].wlan[0].radio receptionState:vector ETV
attr interpolationmode sample-hold
attr recordingmode vector
attr source receptionStateChanged
attr title "Radio reception state"
vector 226 WSN_Network.Sensor_Node[2].wlan[0].radio transmissionState:vector ETV
attr interpolationmode sample-hold
attr recordingmode vector
attr source transmissionStateChanged
attr title "Radio transmission state"
vector 227 WSN_Network.Sensor_Node[2].wlan[0].radio radioChannel:vector ETV
attr interpolationmode sample-hold
attr recordingmode vector
attr source radioChannelChanged
attr title "Radio channel"
vector 228 WSN_Network.Sensor_Node[2].wlan[0] packetDropInterfaceDown:vector(packetBytes) ETV
attr interpolationmode none
attr recordingmode vector(packetBytes)
attr source packetDropReasonIsInterfaceDown(packetDropped)
attr title "packet drops: interface down, packetBytes"
vector 229 WSN_Network.Sensor_Node[2].wlan[0] packetDropNoCarrier:vector(packetBytes) ETV
attr interpolationmode none
attr recordingmode vector(packetBytes)
attr source packetDropReasonIsNoCarrier(packetDropped)
attr title "packet drops: no carrier, packetBytes"
vector 230 WSN_Network.Sensor_Node[2].ipv4.ip packetDropAddressResolutionFailed:vector(packetBytes) ETV
attr interpolationmode none
attr recordingmode vector(packetBytes)
attr source packetDropReasonIsAddressResolutionFailed(packetDropped)
attr title "packet drop: address resolution failed, packetBytes"
vector 231 WSN_Network.Sensor_Node[2].ipv4.ip packetDropHopLimitReached:vector(packetBytes) ETV
attr interpolationmode none
attr recordingmode vector(packetBytes)
attr source packetDropReasonIsHopLimitReached(packetDropped)
attr title "packet drop: hop limit reached, packetBytes"
vector 232 WSN_Network.Sensor_Node[2].ipv4.ip packetDropForwardingDisabled:vector(packetBytes) ETV
attr interpolationmode none
attr recordingmode vector(packetBytes)
attr source packetDropReasonIsForwardingDisabled(packetDropped)
attr title "packet drop: forwarding disabled, packetBytes"
vector 233 WSN_Network.Sensor_Node[2].ipv4.ip packetDropNoInterfaceFound:vector(packetBytes) ETV
attr interpolationmode none
attr recordingmode vector(packetBytes)
attr source packetDropReasonIsNoInterfaceFound(packetDropped)
attr title "packet drop: no interface found, packetBytes"
vector 234 WSN_Network.Sensor_Node[2].ipv4.ip packetDropNoRouteFound:vector(packetBytes) ETV
attr interpolationmode none
attr recordingmode vector(packetBytes)
attr source packetDropReasonIsNoRouteFound(packetDropped)
attr title "packet drop: no route found, packetBytes"
vector 235 WSN_Network.Sensor_Node[2].ipv4.ip packetDropUndefined:vector(packetBytes) ETV
attr interpolationmode none
attr recordingmode vector(packetBytes)
attr source packetDropReasonIsUndefined(packetDropped)
attr title "packet drop: undefined, packetBytes"
vector 236 WSN_Network.Sensor_Node[2].ipv4.arp arpRequestSent:vector(packetBytes) ETV
attr recordingmode vector(packetBytes)
attr source arpRequestSent
attr title "ARP request sent, packetBytes"
vector 237 WSN_Network.Sensor_Node[2].ipv4.arp arpReplySent:vector(packetBytes) ETV
attr recordingmode vector(packetBytes)
attr source arpReplySent
attr title "ARP replies sent, packetBytes"
vector 238 WSN_Network.Sensor_Node[2].udp packetSent:vector(packetBytes) ETV
attr interpolationmode none
attr recordingmode vector(packetBytes)
attr source packetSent
attr title "packets sent, packetBytes"
vector 239 WSN_Network.Sensor_Node[2].udp packetReceived:vector(packetBytes) ETV
attr interpolationmode none
attr recordingmode vector(packetBytes)
attr source packetReceived
attr title "packets received, packetBytes"
vector 240 WSN_Network.Sensor_Node[2].udp passedUpPk:vector(count) ETV
attr interpolationmode none
attr recordingmode vector(count)
attr source packetSentToUpper
attr title "packets passed up, count"
vector 241 WSN_Network.Sensor_Node[2].udp droppedPkWrongPort:vector(count) ETV
attr interpolationmode none
attr recordingmode vector(count)
attr source packetDropReasonIsNoPortFound(packetDropped)
attr title "packets dropped (wrong port), count"
vector 242 WSN_Network.Sensor_Node[2].udp droppedPkBadChecksum:vector(count) ETV
attr interpolationmode none
attr recordingmode vector(count)
attr source packetDropReasonIsIncorrectlyReceived(packetDropped)
attr title "packets dropped (checksum error), count"
vector 243 WSN_Network.Sensor_Node[2].app[0] rtt:vector ETV
attr interpolationmode none
attr recordingmode vector
attr title "ping round-trip time"
attr unit s
vector 244 WSN_Network.Sensor_Node[2].app[0] numLost:vector ETV
attr interpolationmode none
attr recordingmode vector
attr title "pings lost"
vector 245 WSN_Network.Sensor_Node[2].app[0] numOutOfOrderArrivals:vector ETV
attr interpolationmode none
attr recordingmode vector
attr title "ping out-of-order arrivals"
vector 246 WSN_Network.Sensor_Node[2].app[0] pingTxSeq:vector ETV
attr interpolationmode none
attr recordingmode vector
attr title "ping tx seq"
vector 247 WSN_Network.Sensor_Node[2].app[0] pingRxSeq:vector ETV
attr interpolationmode none
attr recordingmode vector
attr title "ping rx seq"
vector 248 WSN_Network.Sensor_Node[2].app[1] rtt:vector ETV
attr interpolationmode none
attr recordingmode vector
attr title "ping round-trip time"
attr unit s
vector 249 WSN_Network.Sensor_Node[2].app[1] numLost:vector ETV
attr interpolationmode none
attr recordingmode vector
attr title "pings lost"
vector 250 WSN_Network.Sensor_Node[2].app[1] numOutOfOrderArrivals:vector ETV
attr interpolationmode none
attr recordingmode vector
attr title "ping out-of-order arrivals"
vector 251 WSN_Network.Sensor_Node[2].app[1] pingTxSeq:vector ETV
attr interpolationmode none
attr recordingmode vector
attr title "ping tx seq"
vector 252 WSN_Network.Sensor_Node[2].app[1] pingRxSeq:vector ETV
attr interpolationmode none
attr recordingmode vector
attr title "ping rx seq"
vector 253 WSN_Network.Sensor_Node[3].lo[0].lo rcvdPkFromHl:vector(packetBytes) ETV
attr interpolationmode none
attr recordingmode vector(packetBytes)
attr source packetReceivedFromUpper
attr title "packets received from higher layer, packetBytes"
vector 254 WSN_Network.Sensor_Node[3].lo[0].lo passedUpPk:vector(packetBytes) ETV
attr interpolationmode none
attr recordingmode vector(packetBytes)
attr source packetSentToUpper
attr title "packets passed to higher layer, packetBytes"
vector 255 WSN_Network.Sensor_Node[3].lo[0] packetDropInterfaceDown:vector(packetBytes) ETV
attr interpolationmode none
attr recordingmode vector(packetBytes)
attr source packetDropReasonIsInterfaceDown(packetDropped)
attr title "packet drops: interface down, packetBytes"
vector 256 WSN_Network.Sensor_Node[3].lo[0] packetDropNoCarrier:vector(packetBytes) ETV
attr interpolationmode none
attr recordingmode vector(packetBytes)
attr source packetDropReasonIsNoCarrier(packetDropped)
attr title "packet drops: no carrier, packetBytes"
vector 257 WSN_Network.Sensor_Node[3].wlan[0].mac.dcf.channelAccess.pendingQueue queueLength:vector ETV
attr autoWarmupFilter false
attr interpolationmode sample-hold
attr recordingmode vector
attr source "warmup(atomic(constant0(packetPushEnded) + count(packetPushStarted) - count(packetPulled) - count(packetRemoved) - count(packetDropped)))"
attr title "queue length"
attr unit pk
vector 258 WSN_Network.Sensor_Node[3].wlan[0].mac.dcf.channelAccess.pendingQueue queueBitLength:vector ETV
attr autoWarmupFilter false
attr interpolationmode sample-hold
attr recordingmode vector
attr source "warmup(atomic(constant0(packetPushEnded) + sum(packetLength(packetPushStarted)) - sum(packetLength(packetPulled)) - sum(packetLength(packetRemoved)) - sum(packetLength(packetDropped))))"
attr title "queue bit length"
attr unit b
vector 259 WSN_Network.Sensor_Node[3].wlan[0].mac.dcf.channelAccess.pendingQueue queueingTime:vector ETV
attr interpolationmode none
attr recordingmode vector
attr source queueingTime(packetPulled)
attr title "queueing times"
attr unit s
vector 260 WSN_Network.Sensor_Node[3].wlan[0].mac.dcf.channelAccess.pendingQueue incomingPacketLengths:vector ETV
attr interpolationmode none
attr recordingmode vector
attr source packetLength(packetPushStarted)
attr title "incoming packet lengths"
attr unit b
vector 261 WSN_Network.Sensor_Node[3].wlan[0].mac.dcf.channelAccess.pendingQueue incomingDataRate:vector ETV
attr interpolationmode linear
attr recordingmode vector
attr source throughput(packetPushStarted)
attr title "incoming datarate"
attr unit bps
vector 262 WSN_Network.Sensor_Node[3].wlan[0].mac.dcf.channelAccess.pendingQueue outgoingPacketLengths:vector ETV
attr interpolationmode none
attr recordingmode vector
attr source packetLength(packetPulled)
attr title "outgoing packet lengths"
attr unit b
vector 263 WSN_Network.Sensor_Node[3].wlan[0].mac.dcf.channelAccess.pendingQueue outgoingDataRate:vector ETV
attr interpolationmode linear
attr recordingmode vector
attr source throughput(packetPulled)
attr title "outgoing datarate"
attr unit bps
vector 264 WSN_Network.Sensor_Node[3].wlan[0].mac.dcf.channelAccess.pendingQueue droppedPacketLengthsQueueOverflow:vector ETV
attr interpolationmode none
attr recordingmode vector
attr source packetLength(packetDropReasonIsQueueOverflow(packetDropped))
attr title "dropped packet lengths: queue overflow"
attr unit b
vector 265 WSN_Network.Sensor_Node[3].wlan[0].mac.dcf.channelAccess.pendingQueue flowQueueingTime:vector ETV
attr interpolationmode none
attr recordingmode vector
attr source queueingTime(demuxFlow(packetPulled))
attr title "flow queueing times"
attr unit s
vector 266 WSN_Network.Sensor_Node[3].wlan[0].mac.dcf.channelAccess.pendingQueue flowIncomingDataRate:vector ETV
attr interpolationmode linear
attr recordingmode vector
attr source throughput(flowPacketLength(demuxFlow(packetPushStarted)))
attr title "flow specific incoming data rate"
attr unit bps
vector 267 WSN_Network.Sensor_Node[3].wlan[0].mac.dcf.channelAccess.pendingQueue flowOutgoingDataRate:vector ETV
attr interpolationmode linear
attr recordingmode vector
attr source throughput(flowPacketLength(demuxFlow(packetPulled)))
attr title "flow specific outgoing data rate"
attr unit bps
vector 268 WSN_Network.Sensor_Node[3].wlan[0].mac.dcf.channelAccess.inProgressFrames queueingTime:vector ETV
attr interpolationmode none
attr recordingmode vector
attr source queueingTime(packetDequeued)
attr title "queueing times"
vector 269 WSN_Network.Sensor_Node[3].wlan[0].mac.dcf.channelAccess.inProgressFrames queueLength:vector ETV
attr autoWarmupFilter false
attr interpolationmode sample-hold
attr recordingmode vector
attr source "warmup(count(packetEnqueued) - count(packetDequeued))"
attr title "queue length"
vector 270 WSN_Network.Sensor_Node[3].wlan[0].mac.dcf.channelAccess.contention backoffPeriodGenerated:vector ETV
attr interpolationmode none
attr recordingmode vector
attr title "backoff periods"
vector 271 WSN_Network.Sensor_Node[3].wlan[0].mac.dcf.channelAccess.contention backoffActive:vector ETV
attr autoWarmupFilter false
attr interpolationmode sample-hold
attr recordingmode vector
attr source warmup(count(backoffStarted)-count(backoffStopped))
attr title "backoff active"
vector 272 WSN_Network.Sensor_Node[3].wlan[0].mac.dcf.channelAccess.contention stateChanged:vector ETV
attr enum IDLE,DEFER,IFS_AND_BACKOFF
attr interpolationmode none
attr recordingmode vector
attr title "contention state changed"
attr type enum
vector 273 WSN_Network.Sensor_Node[3].wlan[0].mac.dcf.recipientMacDataService packetDropDuplicateDetected:vector(packetBytes) ETV
attr interpolationmode none
attr recordingmode vector(packetBytes)
attr source packetDropReasonIsDuplicateDetected(packetDropped)
attr title "packet drops: duplicate detected, packetBytes"
vector 274 WSN_Network.Sensor_Node[3].wlan[0].mac.dcf.recoveryProcedure contentionWindowChanged:vector ETV
attr interpolationmode sample-hold
attr recordingmode vector
attr title "contention window"
vector 275 WSN_Network.Sensor_Node[3].wlan[0].mac.dcf packetSentToPeer:vector(packetBytes) ETV
attr interpolationmode none
attr recordingmode vector(packetBytes)
attr title "packets sent, packetBytes"
vector 276 WSN_Network.Sensor_Node[3].wlan[0].mac.dcf packetSentToPeerUnicast:vector(packetBytes) ETV
attr interpolationmode none
attr recordingmode vector(packetBytes)
attr source ieee80211Unicast(packetSentToPeer)
attr title "packets sent: unicast, packetBytes"
vector 277 WSN_Network.Sensor_Node[3].wlan[0].mac.dcf packetSentToPeerMulticast:vector(packetBytes) ETV
attr interpolationmode none
attr recordingmode vector(packetBytes)
attr source ieee80211Multicast(packetSentToPeer)
attr title "packets sent: multicast, packetBytes"
vector 278 WSN_Network.Sensor_Node[3].wlan[0].mac.dcf packetSentToPeerBroadcast:vector(packetBytes) ETV
attr interpolationmode none
attr recordingmode vector(packetBytes)
attr source ieee80211Broadcast(packetSentToPeer)
attr title "packets sent: broadcast , packetBytes"
vector 279 WSN_Network.Sensor_Node[3].wlan[0].mac.dcf packetSentToPeerWithRetry:vector(packetBytes) ETV
attr interpolationmode none
attr recordingmode vector(packetBytes)
attr source ieee80211Retry(packetSentToPeer)
attr title "packets sent: with retry, packetBytes"
vector 280 WSN_Network.Sensor_Node[3].wlan[0].mac.dcf packetSentToPeerWithoutRetry:vector(packetBytes) ETV
attr interpolationmode none
attr recordingmode vector(packetBytes)
attr source ieee80211NotRetry(packetSentToPeer)
attr title "packets sent: without retry, packetBytes"
vector 281 WSN_Network.Sensor_Node[3].wlan[0].mac.dcf packetReceivedFromPeer:vector(packetBytes) ETV
attr interpolationmode none
attr recordingmode vector(packetBytes)
attr title "packets received, packetBytes"
vector 282 WSN_Network.Sensor_Node[3].wlan[0].mac.dcf packetReceivedFromPeerUnicast:vector(packetBytes) ETV
attr interpolationmode none
attr recordingmode vector(packetBytes)
attr source ieee80211Unicast(packetReceivedFromPeer)
attr title "packets received: unicast, packetBytes"
vector 283 WSN_Network.Sensor_Node[3].wlan[0].mac.dcf packetReceivedFromPeerMulticast:vector(packetBytes) ETV
attr interpolationmode none
attr recordingmode vector(packetBytes)
attr source ieee80211Multicast(packetReceivedFromPeer)
attr title "packets received: multicast, packetBytes"
vector 284 WSN_Network.Sensor_Node[3].wlan[0].mac.dcf packetReceivedFromPeerBroadcast:vector(packetBytes) ETV
attr interpolationmode none
attr recordingmode vector(packetBytes)
attr source ieee80211Broadcast(packetReceivedFromPeer)
attr title "packets received: broadcast, packetBytes"
vector 285 WSN_Network.Sensor_Node[3].wlan[0].mac.dcf packetReceivedFromPeerWithRetry:vector(packetBytes) ETV
attr interpolationmode none
attr recordingmode vector(packetBytes)
attr source ieee80211Retry(packetReceivedFromPeer)
attr title "packets received: with retry, packetBytes"
vector 286 WSN_Network.Sensor_Node[3].wlan[0].mac.dcf packetReceivedFromPeerWithoutRetry:vector(packetBytes) ETV
attr interpolationmode none
attr recordingmode vector(packetBytes)
attr source ieee80211NotRetry(packetReceivedFromPeer)
attr title "packets received: without retry, packetBytes"
vector 287 WSN_Network.Sensor_Node[3].wlan[0].mac.dcf packetDrop:vector(packetBytes) ETV
attr interpolationmode none
attr recordingmode vector(packetBytes)
attr source packetDropped
attr title "packet drops, packetBytes"
vector 288 WSN_Network.Sensor_Node[3].wlan[0].mac.dcf packetDropNotAddressedToUs:vector(packetBytes) ETV
attr interpolationmode none
attr recordingmode vector(packetBytes)
attr source packetDropReasonIsNotAddressedToUs(packetDropped)
attr title "packet drops: not addressed to us, packetBytes"
vector 289 WSN_Network.Sensor_Node[3].wlan[0].mac.dcf packetDropQueueOverflow:vector(packetBytes) ETV
attr interpolationmode none
attr recordingmode vector(packetBytes)
attr source packetDropReasonIsQueueOverflow(packetDropped)
attr title "packet drops: queue overflow, packetBytes"
vector 290 WSN_Network.Sensor_Node[3].wlan[0].mac.dcf packetDropRetryLimitReached:vector(packetBytes) ETV
attr interpolationmode none
attr recordingmode vector(packetBytes)
attr source packetDropReasonIsRetryLimitReached(packetDropped)
attr title "packet drops: retry limit reached, packetBytes"
vector 291 WSN_Network.Sensor_Node[3].wlan[0].mac.dcf frameSequenceActive:vector ETV
attr autoWarmupFilter false
attr interpolationmode sample-hold
attr recordingmode vector
attr source warmup(count(frameSequenceStarted)-count(frameSequenceFinished))
attr title "frame sequence active"
vector 292 WSN_Network.Sensor_Node[3].wlan[0].mac.dcf datarateSelected:vector ETV
attr interpolationmode none
attr recordingmode vector
attr title "datarates selected"
vector 293 WSN_Network.Sensor_Node[3].wlan[0].mac.rx nav:vector ETV
attr interpolationmode linear
attr recordingmode vector
attr source navChanged
attr title "network allocation vector"
vector 294 WSN_Network.Sensor_Node[3].wlan[0].mac packetSentToUpper:vector(packetBytes) ETV
attr interpolationmode none
attr recordingmode vector(packetBytes)
attr title "packets sent to upper layer, packetBytes"
vector 295 WSN_Network.Sensor_Node[3].wlan[0].mac packetSentToLower:vector(packetBytes) ETV
attr interpolationmode none
attr recordingmode vector(packetBytes)
attr title "packets sent to lower layer, packetBytes"
vector 296 WSN_Network.Sensor_Node[3].wlan[0].mac packetReceivedFromUpper:vector(packetBytes) ETV
attr interpolationmode none
attr recordingmode vector(packetBytes)
attr title "packets received from upper layer, packetBytes"
vector 297 WSN_Network.Sensor_Node[3].wlan[0].mac packetReceivedFromLower:vector(packetBytes) ETV
attr interpolationmode none
attr recordingmode vector(packetBytes)
attr title "packets received from lower layer, packetBytes"
vector 298 WSN_Network.Sensor_Node[3].wlan[0].mac packetDrop:vector(packetBytes) ETV
attr interpolationmode none
attr recordingmode vector(packetBytes)
attr source packetDropped
attr title "packet drops, packetBytes"
vector 299 WSN_Network.Sensor_Node[3].wlan[0].mac packetDropIncorrectlyReceived:vector(packetBytes) ETV
attr interpolationmode none
attr recordingmode vector(packetBytes)
attr source packetDropReasonIsIncorrectlyReceived(packetDropped)
attr title "packet drops: incorrectly received, packetBytes"
vector 300 WSN_Network.Sensor_Node[3].wlan[0].mac packetDropNotAddressedToUs:vector(packetBytes) ETV
attr interpolationmode none
attr recordingmode vector(packetBytes)
attr source packetDropReasonIsNotAddressedToUs(packetDropped)
attr title "packet drops: not addressed to us, packetBytes"
vector 301 WSN_Network.Sensor_Node[3].wlan[0].mac packetDropQueueOverflow:vector(packetBytes) ETV
attr interpolationmode none
attr recordingmode vector(packetBytes)
attr source packetDropReasonIsQueueOverflow(packetDropped)
attr title "packet drops: queue overflow, packetBytes"
vector 302 WSN_Network.Sensor_Node[3].wlan[0].mac packetDropRetryLimitReached:vector(packetBytes) ETV
attr interpolationmode none
attr recordingmode vector(packetBytes)
attr source packetDropReasonIsRetryLimitReached(packetDropped)
attr title "packet drops: retry limit reached, packetBytes"
[...]
770	1071098 27 1832 1832 1.64528913852 1.64528913852 1 64 64 64 4096
772	1071125 27 1832 1832 1.64528913852 1.64528913852 1 64 64 64 4096
780	1071152 27 1832 1832 1.64528913852 1.64528913852 1 36 36 36 1296
783	1071179 27 1832 1832 1.64528913852 1.64528913852 1 64 64 64 4096
792	1071206 52 1774 1831 1.64523913852 1.64528913852 2 1 3 4 10
1001	1071258 112 1955 2015 1.786330689536 1.786380689536 4 0 0 0 0
1010	1071370 29 2016 2016 1.786380689536 1.786380689536 1 64 64 64 4096
1012	1071399 29 2016 2016 1.786380689536 1.786380689536 1 64 64 64 4096
1013	1071428 29 2016 2016 1.786380689536 1.786380689536 1 64 64 64 4096
1015	1071457 29 2016 2016 1.786380689536 1.786380689536 1 64 64 64 4096
1023	1071486 29 2016 2016 1.786380689536 1.786380689536 1 36 36 36 1296
1026	1071515 29 2016 2016 1.786380689536 1.786380689536 1 64 64 64 4096
1035	1071544 56 1955 2015 1.786330689536 1.786380689536 2 1 3 4 10
1229	1071600 110 2111 2470 1.84153024666 1.842216268552 4 0 1 2 2
1230	1071710 114 2111 2470 1.84153024666 1.842216268552 4 0 960 1472 1183744
1231	1071824 62 2113 2470 1.84153024666 1.842216268552 2 0 0.000274 0.000274 7.5076e-08
1232	1071886 59 2111 2308 1.84153024666 1.841942268552 2 512 960 1472 1183744
1233	1071945 304 2111 2111 0.1 1.8 18 0 0 0 0
1234	1072249 59 2113 2470 1.84153024666 1.842216268552 2 512 960 1472 1183744
1235	1072308 304 2113 2113 0.1 1.8 18 0 0 0 0
1240	1072612 71 2165 2658 1.84158024666 1.84233229039 2 5e-05 0.000116021838 0.000166021838 1.5961066892898e-08
1241	1072683 109 2113 2658 1.84153024666 1.84233229039 4 0 1 2 2
1242	1072792 56 2111 2308 1.84153024666 1.841942268552 2 9 18 27 405
1243	1072848 166 2111 2469 1.84153024666 1.842216268552 6 0 1 3 3
1244	1073014 886 2111 2878 1.84153024666 1.842576290382 32 0 2 14 26
1247	1073900 116 2165 2877 1.84158024666 1.842576290382 4 14 120 212 18888
1248	1074016 88 2411 2877 1.841986268552 1.842576290382 3 14 120 148 14792
1249	1074104 28 2165 2165 1.84158024666 1.84158024666 1 64 64 64 4096
1250	1074132 28 2165 2165 1.84158024666 1.84158024666 1 64 64 64 4096
1252	1074160 116 2165 2877 1.84158024666 1.842576290382 4 14 120 212 18888
1253	1074276 87 2304 2770 1.841942268552 1.842532290382 3 14 120 198 18692
1254	1074363 87 2304 2770 1.841942268552 1.842532290382 3 14 120 198 18692
1258	1074450 87 2304 2770 1.841942268552 1.842532290382 3 14 120 198 18692
1263	1074537 109 2113 2658 1.84153024666 1.84233229039 4 0 1 2 2
1264	1074646 139 2113 2770 1.84153024666 1.842532290382 4 24000000 24000000 96000000 2.304e+15
1265	1074785 90 2522 2637 1.842286268552 1.842330268552 3 0 4.4e-05 4.4e-05 1.936e-09
1266	1074875 58 2304 2770 1.841942268552 1.842532290382 2 36 92 128 9760
1267	1074933 116 2113 2818 1.84153024666 1.842542290382 4 14 120 212 18888
1268	1075049 57 2111 2308 1.84153024666 1.841942268552 2 36 92 128 9760
1269	1075106 87 2304 2770 1.841942268552 1.842532290382 3 14 120 198 18692
1277	1075193 222 2114 2878 1.84153024666 1.842576290382 8 2 3 20 52
1278	1075415 388 2114 2878 1.84153024666 1.842576290382 14 0 3 16 34
1279	1075803 444 2114 2878 1.84153024666 1.842576290382 16 0 2 16 24
1289	1076247 28 2109 2109 1.84153024666 1.84153024666 1 28 28 28 784
1296	1076275 41 2773 2773 1.842532290382 1.842532290382 1 0.001002043722 0.001002043722 0.001002043722 1.0040916207996e-06
1299	1076316 27 2107 2107 1.84153024666 1.84153024666 1 0 0 0 0
1300	1076343 28 2773 2773 1.842532290382 1.842532290382 1 0 0 0 0
1325	1076371 112 1773 1827 1.645238911052 1.645288911052 4 0 0 0 0
1334	1076483 29 1828 1828 1.645288911052 1.645288911052 1 64 64 64 4096
1336	1076512 29 1828 1828 1.645288911052 1.645288911052 1 64 64 64 4096
1337	1076541 29 1828 1828 1.645288911052 1.645288911052 1 64 64 64 4096
1339	1076570 29 1828 1828 1.645288911052 1.645288911052 1 64 64 64 4096
1347	1076599 29 1828 1828 1.645288911052 1.645288911052 1 36 36 36 1296
1350	1076628 29 1828 1828 1.645288911052 1.645288911052 1 64 64 64 4096
1359	1076657 56 1773 1827 1.645238911052 1.645288911052 2 1 3 4 10
1472	1076713 56 1767 1769 1.645238044672 1.645238044672 2 0 1 1 1
1473	1076769 58 1767 1769 1.645238044672 1.645238044672 2 0 512 512 262144
1474	1076827 28 1769 1769 1.645238044672 1.645238044672 1 0 0 0 0
1475	1076855 30 1767 1767 1.645238044672 1.645238044672 1 512 512 512 262144
1476	1076885 270 1767 1767 0.1 1.6 16 0 0 0 0
1477	1077155 30 1769 1769 1.645238044672 1.645238044672 1 512 512 512 262144
1478	1077185 270 1769 1769 0.1 1.6 16 0 0 0 0
1483	1077455 32 1821 1821 1.645288044672 1.645288044672 1 5e-05 5e-05 5e-05 2.5e-09
1484	1077487 56 1769 1821 1.645238044672 1.645288044672 2 0 1 1 1
1485	1077543 28 1767 1767 1.645238044672 1.645238044672 1 5 5 5 25
1486	1077571 56 1767 1768 1.645238044672 1.645238044672 2 0 1 1 1
1487	1077627 224 1767 1822 1.645238044672 1.645288044672 8 0 2 4 8
1490	1077851 29 1821 1821 1.645288044672 1.645288044672 1 64 64 64 4096
1492	1077880 29 1821 1821 1.645288044672 1.645288044672 1 64 64 64 4096
1493	1077909 29 1821 1821 1.645288044672 1.645288044672 1 64 64 64 4096
1495	1077938 29 1821 1821 1.645288044672 1.645288044672 1 64 64 64 4096
1506	1077967 56 1769 1821 1.645238044672 1.645288044672 2 0 1 1 1
1507	1078023 35 1769 1769 1.645238044672 1.645238044672 1 24000000 24000000 24000000 5.76e+14
1510	1078058 29 1769 1769 1.645238044672 1.645238044672 1 64 64 64 4096
1511	1078087 29 1767 1767 1.645238044672 1.645238044672 1 36 36 36 1296
1520	1078116 56 1770 1822 1.645238044672 1.645288044672 2 2 3 5 13
1521	1078172 56 1770 1822 1.645238044672 1.645288044672 2 0 1 1 1
1522	1078228 112 1770 1822 1.645238044672 1.645288044672 4 0 2 4 6
1532	1078340 29 1765 1765 1.645238044672 1.645238044672 1 28 28 28 784
1542	1078369 28 1763 1763 1.645238044672 1.645238044672 1 0 0 0 0
1568	1078397 780 2117 2882 1.84153084809 1.842576891813 28 0 0 0 0
1577	1079177 28 2172 2172 1.84158084809 1.84158084809 1 64 64 64 4096
1579	1079205 28 2172 2172 1.84158084809 1.84158084809 1 64 64 64 4096
1580	1079233 28 2172 2172 1.84158084809 1.84158084809 1 64 64 64 4096
1582	1079261 28 2172 2172 1.84158084809 1.84158084809 1 64 64 64 4096
1583	1079289 176 2294 2883 1.841941890702 1.842576891813 6 14 120 346 33484
1584	1079465 176 2294 2883 1.841941890702 1.842576891813 6 14 120 346 33484
1589	1079641 270 2294 2872 1.841941890702 1.842575912453 9 0 4.4e-05 0.000132 5.808e-09
1590	1079911 28 2172 2172 1.84158084809 1.84158084809 1 36 36 36 1296
1593	1079939 204 2172 2883 1.84158084809 1.842576891813 7 14 120 410 37580
1594	1080143 176 2294 2883 1.841941890702 1.842576891813 6 14 120 346 33484
1596	1080319 176 2294 2883 1.841941890702 1.842576891813 6 14 120 346 33484
1602	1080495 390 2117 2882 1.84153084809 1.842576891813 14 1 3 28 70
1649	1080885 112 1775 1835 1.645239300365 1.645289300365 4 0 0 0 0
1658	1080997 29 1836 1836 1.645289300365 1.645289300365 1 64 64 64 4096
1660	1081026 29 1836 1836 1.645289300365 1.645289300365 1 64 64 64 4096
1661	1081055 29 1836 1836 1.645289300365 1.645289300365 1 64 64 64 4096
1663	1081084 29 1836 1836 1.645289300365 1.645289300365 1 64 64 64 4096
1671	1081113 29 1836 1836 1.645289300365 1.645289300365 1 36 36 36 1296
1674	1081142 29 1836 1836 1.645289300365 1.645289300365 1 64 64 64 4096
1683	1081171 56 1775 1835 1.645239300365 1.645289300365 2 1 3 4 10
1715	1081227 56 1947 1949 1.786329426803 1.786329426803 2 0 1 1 1
1716	1081283 58 1947 1949 1.786329426803 1.786329426803 2 0 512 512 262144
1717	1081341 28 1949 1949 1.786329426803 1.786329426803 1 0 0 0 0
1718	1081369 30 1947 1947 1.786329426803 1.786329426803 1 512 512 512 262144
1719	1081399 287 1947 1947 0.1 1.7 17 0 0 0 0
1720	1081686 30 1949 1949 1.786329426803 1.786329426803 1 512 512 512 262144
1721	1081716 287 1949 1949 0.1 1.7 17 0 0 0 0
1726	1082003 32 2001 2001 1.786379426803 1.786379426803 1 5e-05 5e-05 5e-05 2.5e-09
1727	1082035 56 1949 2001 1.786329426803 1.786379426803 2 0 1 1 1
1728	1082091 29 1947 1947 1.786329426803 1.786329426803 1 25 25 25 625
1729	1082120 56 1947 1948 1.786329426803 1.786329426803 2 0 1 1 1
1730	1082176 224 1947 2002 1.786329426803 1.786379426803 8 0 2 4 8
1733	1082400 29 2001 2001 1.786379426803 1.786379426803 1 64 64 64 4096
1735	1082429 29 2001 2001 1.786379426803 1.786379426803 1 64 64 64 4096
1736	1082458 29 2001 2001 1.786379426803 1.786379426803 1 64 64 64 4096
1738	1082487 29 2001 2001 1.786379426803 1.786379426803 1 64 64 64 4096
1749	1082516 56 1949 2001 1.786329426803 1.786379426803 2 0 1 1 1
1750	1082572 35 1949 1949 1.786329426803 1.786329426803 1 24000000 24000000 24000000 5.76e+14
1753	1082607 29 1949 1949 1.786329426803 1.786329426803 1 64 64 64 4096
1754	1082636 29 1947 1947 1.786329426803 1.786329426803 1 36 36 36 1296
1763	1082665 56 1950 2002 1.786329426803 1.786379426803 2 2 3 5 13
1764	1082721 56 1950 2002 1.786329426803 1.786379426803 2 0 1 1 1
1765	1082777 112 1950 2002 1.786329426803 1.786379426803 4 0 2 4 6
1775	1082889 29 1945 1945 1.786329426803 1.786329426803 1 28 28 28 784
1785	1082918 28 1943 1943 1.786329426803 1.786329426803 1 0 0 0 0
1973	1082946 560 2244 2875 1.841892257944 1.842576279807 20 0 0 0 0
1988	1083506 88 2300 2766 1.841942257944 1.842532279807 3 14 120 198 18692
1989	1083594 88 2300 2766 1.841942257944 1.842532279807 3 14 120 198 18692
1994	1083682 180 2300 2875 1.841942257944 1.842576279807 6 0 4.4e-05 8.8e-05 3.872e-09
1998	1083862 88 2300 2766 1.841942257944 1.842532279807 3 14 120 198 18692
1999	1083950 88 2300 2766 1.841942257944 1.842532279807 3 14 120 198 18692
2001	1084038 88 2300 2766 1.841942257944 1.842532279807 3 14 120 198 18692
2007	1084126 168 2244 2765 1.841892257944 1.842532279807 6 1 3 12 30
2297	1084294 784 2120 2888 1.841531116647 1.842577160428 28 0 0 0 0
2306	1085078 29 2184 2184 1.841581116647 1.841581116647 1 64 64 64 4096
2308	1085107 29 2184 2184 1.841581116647 1.841581116647 1 64 64 64 4096
2309	1085136 29 2184 2184 1.841581116647 1.841581116647 1 64 64 64 4096
2311	1085165 29 2184 2184 1.841581116647 1.841581116647 1 64 64 64 4096
2312	1085194 176 2310 2889 1.841942363653 1.842577160428 6 14 120 346 33484
2313	1085370 176 2310 2889 1.841942363653 1.842577160428 6 14 120 346 33484
2318	1085546 270 2310 2879 1.841942363653 1.842576385478 9 0 4.4e-05 0.000132 5.808e-09
2319	1085816 29 2184 2184 1.841581116647 1.841581116647 1 36 36 36 1296
2322	1085845 205 2184 2889 1.841581116647 1.842577160428 7 14 120 410 37580
2323	1086050 176 2310 2889 1.841942363653 1.842577160428 6 14 120 346 33484
2325	1086226 176 2310 2889 1.841942363653 1.842577160428 6 14 120 346 33484
2331	1086402 392 2120 2888 1.841531116647 1.842577160428 14 1 3 28 70
2540	1086794 112 1772 1823 1.645238443318 1.645288443318 4 0 0 0 0
2549	1086906 29 1824 1824 1.645288443318 1.645288443318 1 64 64 64 4096
2551	1086935 29 1824 1824 1.645288443318 1.645288443318 1 64 64 64 4096
2552	1086964 29 1824 1824 1.645288443318 1.645288443318 1 64 64 64 4096
2554	1086993 29 1824 1824 1.645288443318 1.645288443318 1 64 64 64 4096
2562	1087022 29 1824 1824 1.645288443318 1.645288443318 1 36 36 36 1296
2565	1087051 29 1824 1824 1.645288443318 1.645288443318 1 64 64 64 4096
2574	1087080 56 1772 1823 1.645238443318 1.645288443318 2 1 3 4 10
2945	1087136 778 2118 2884 1.841531043192 1.842577086912 28 0 0 0 0
2954	1087914 29 2176 2176 1.841581043192 1.841581043192 1 64 64 64 4096
2956	1087943 29 2176 2176 1.841581043192 1.841581043192 1 64 64 64 4096
2957	1087972 29 2176 2176 1.841581043192 1.841581043192 1 64 64 64 4096
2959	1088001 29 2176 2176 1.841581043192 1.841581043192 1 64 64 64 4096
2960	1088030 175 2292 2885 1.841941645504 1.842577086912 6 14 120 346 33484
2961	1088205 175 2292 2885 1.841941645504 1.842577086912 6 14 120 346 33484
2966	1088380 267 2292 2871 1.841941645504 1.84257566735 9 0 4.4e-05 0.000132 5.808e-09
2967	1088647 29 2176 2176 1.841581043192 1.841581043192 1 36 36 36 1296
2970	1088676 204 2176 2885 1.841581043192 1.842577086912 7 14 120 410 37580
2971	1088880 175 2292 2885 1.841941645504 1.842577086912 6 14 120 346 33484
2973	1089055 175 2292 2885 1.841941645504 1.842577086912 6 14 120 346 33484
2979	1089230 390 2118 2884 1.841531043192 1.842577086912 14 1 3 28 70
3269	1089620 778 2116 2880 1.841530837574 1.842576881313 28 0 0 0 0
3278	1090398 29 2168 2168 1.841580837574 1.841580837574 1 64 64 64 4096
3280	1090427 29 2168 2168 1.841580837574 1.841580837574 1 64 64 64 4096
3281	1090456 29 2168 2168 1.841580837574 1.841580837574 1 64 64 64 4096
3283	1090485 29 2168 2168 1.841580837574 1.841580837574 1 64 64 64 4096
3284	1090514 175 2296 2881 1.84194220101 1.842576881313 6 14 120 346 33484
3285	1090689 175 2296 2881 1.84194220101 1.842576881313 6 14 120 346 33484
3290	1090864 267 2296 2873 1.84194220101 1.842576222789 9 0 4.4e-05 0.000132 5.808e-09
3291	1091131 29 2168 2168 1.841580837574 1.841580837574 1 36 36 36 1296
3294	1091160 204 2168 2881 1.841580837574 1.842576881313 7 14 120 410 37580
3295	1091364 175 2296 2881 1.84194220101 1.842576881313 6 14 120 346 33484
3297	1091539 175 2296 2881 1.84194220101 1.842576881313 6 14 120 346 33484
3303	1091714 390 2116 2880 1.841530837574 1.842576881313 14 1 3 28 70
3431	1092104 560 2245 2876 1.841892258257 1.842576280074 20 0 0 0 0
3446	1092664 88 2302 2768 1.841942258257 1.842532280074 3 14 120 198 18692
3447	1092752 88 2302 2768 1.841942258257 1.842532280074 3 14 120 198 18692
3452	1092840 180 2302 2876 1.841942258257 1.842576280074 6 0 4.4e-05 8.8e-05 3.872e-09
3456	1093020 88 2302 2768 1.841942258257 1.842532280074 3 14 120 198 18692
3457	1093108 88 2302 2768 1.841942258257 1.842532280074 3 14 120 198 18692
3459	1093196 88 2302 2768 1.841942258257 1.842532280074 3 14 120 198 18692
3465	1093284 168 2245 2767 1.841892258257 1.842532280074 6 1 3 12 30
3512	1093452 112 1952 2003 1.786329601873 1.786379601873 4 0 0 0 0
3521	1093564 29 2004 2004 1.786379601873 1.786379601873 1 64 64 64 4096
3523	1093593 29 2004 2004 1.786379601873 1.786379601873 1 64 64 64 4096
3524	1093622 29 2004 2004 1.786379601873 1.786379601873 1 64 64 64 4096
3526	1093651 29 2004 2004 1.786379601873 1.786379601873 1 64 64 64 4096
3534	1093680 29 2004 2004 1.786379601873 1.786379601873 1 36 36 36 1296
3537	1093709 29 2004 2004 1.786379601873 1.786379601873 1 64 64 64 4096
3546	1093738 56 1952 2003 1.786329601873 1.786379601873 2 1 3 4 10
3674	1093794 112 1954 2011 1.786330468982 1.786380468982 4 0 0 0 0
3683	1093906 29 2012 2012 1.786380468982 1.786380468982 1 64 64 64 4096
3685	1093935 29 2012 2012 1.786380468982 1.786380468982 1 64 64 64 4096
3686	1093964 29 2012 2012 1.786380468982 1.786380468982 1 64 64 64 4096
3688	1093993 29 2012 2012 1.786380468982 1.786380468982 1 64 64 64 4096
3696	1094022 29 2012 2012 1.786380468982 1.786380468982 1 36 36 36 1296
3699	1094051 29 2012 2012 1.786380468982 1.786380468982 1 64 64 64 4096
3708	1094080 56 1954 2011 1.786330468982 1.786380468982 2 1 3 4 10
28	1094136 19 2959 2959 1.9 1.9 1 14720 14720 14720 216678400
30	1094155 19 2959 2959 1.9 1.9 1 14720 14720 14720 216678400
99	1094174 283 2959 2959 0.1 1.9 19 0 0 0 0
101	1094457 302 2959 2959 0.1 1.9 19 0 0 0 0
180	1094759 302 2959 2959 0.1 1.9 19 0 0 0 0
182	1095061 302 2959 2959 0.1 1.9 19 0 0 0 0
261	1095363 302 2959 2959 0.1 1.9 19 0 0 0 0
263	1095665 302 2959 2959 0.1 1.9 19 0 0 0 0
342	1095967 302 2959 2959 0.1 1.9 19 0 0 0 0
344	1096269 302 2959 2959 0.1 1.9 19 0 0 0 0
423	1096571 147 2959 2959 1.1 1.9 9 0 5120 5120 26214400
425	1096718 147 2959 2959 1.1 1.9 9 0 5120 5120 26214400
504	1096865 302 2959 2959 0.1 1.9 19 0 0 0 0
506	1097167 302 2959 2959 0.1 1.9 19 0 0 0 0
585	1097469 302 2959 2959 0.1 1.9 19 0 0 0 0
587	1097771 302 2959 2959 0.1 1.9 19 0 0 0 0
666	1098073 302 2959 2959 0.1 1.9 19 0 0 0 0
668	1098375 302 2959 2959 0.1 1.9 19 0 0 0 0
747	1098677 302 2959 2959 0.1 1.9 19 0 0 0 0
749	1098979 302 2959 2959 0.1 1.9 19 0 0 0 0
828	1099281 302 2959 2959 0.1 1.9 19 0 0 0 0
830	1099583 302 2959 2959 0.1 1.9 19 0 0 0 0
909	1099885 147 2959 2959 1.1 1.9 9 0 5120 5120 26214400
911	1100032 147 2959 2959 1.1 1.9 9 0 5120 5120 26214400
990	1100179 302 2959 2959 0.1 1.9 19 0 0 0 0
992	1100481 302 2959 2959 0.1 1.9 19 0 0 0 0
1071	1100783 321 2959 2959 0.1 1.9 19 0 0 0 0
1073	1101104 321 2959 2959 0.1 1.9 19 0 0 0 0
1152	1101425 122 2959 2959 1.3 1.9 7 0 5120 5120 26214400
1154	1101547 122 2959 2959 1.3 1.9 7 0 5120 5120 26214400
1233	1101669 21 2959 2959 1.9 1.9 1 14720 14720 14720 216678400
1235	1101690 21 2959 2959 1.9 1.9 1 14720 14720 14720 216678400
1314	1101711 321 2959 2959 0.1 1.9 19 0 0 0 0
1316	1102032 321 2959 2959 0.1 1.9 19 0 0 0 0
1395	1102353 321 2959 2959 0.1 1.9 19 0 0 0 0
1397	1102674 321 2959 2959 0.1 1.9 19 0 0 0 0
1476	1102995 54 2959 2959 1.7 1.9 3 0 5120 5120 26214400
1478	1103049 54 2959 2959 1.7 1.9 3 0 5120 5120 26214400
1557	1103103 321 2959 2959 0.1 1.9 19 0 0 0 0
1559	1103424 321 2959 2959 0.1 1.9 19 0 0 0 0
1638	1103745 88 2959 2959 1.5 1.9 5 0 5120 5120 26214400
1640	1103833 88 2959 2959 1.5 1.9 5 0 5120 5120 26214400
1719	1103921 37 2959 2959 1.8 1.9 2 0 5120 5120 26214400
1721	1103958 37 2959 2959 1.8 1.9 2 0 5120 5120 26214400
1800	1103995 105 2959 2959 1.4 1.9 6 0 5120 5120 26214400
1802	1104100 105 2959 2959 1.4 1.9 6 0 5120 5120 26214400
1881	1104205 321 2959 2959 0.1 1.9 19 0 0 0 0
1883	1104526 321 2959 2959 0.1 1.9 19 0 0 0 0
1962	1104847 321 2959 2959 0.1 1.9 19 0 0 0 0
1964	1105168 321 2959 2959 0.1 1.9 19 0 0 0 0
2043	1105489 321 2959 2959 0.1 1.9 19 0 0 0 0
2045	1105810 321 2959 2959 0.1 1.9 19 0 0 0 0
2124	1106131 88 2959 2959 1.5 1.9 5 0 5120 5120 26214400
2126	1106219 88 2959 2959 1.5 1.9 5 0 5120 5120 26214400
2205	1106307 122 2959 2959 1.3 1.9 7 0 5120 5120 26214400
2207	1106429 122 2959 2959 1.3 1.9 7 0 5120 5120 26214400
2286	1106551 321 2959 2959 0.1 1.9 19 0 0 0 0
2288	1106872 321 2959 2959 0.1 1.9 19 0 0 0 0
2367	1107193 321 2959 2959 0.1 1.9 19 0 0 0 0
2369	1107514 321 2959 2959 0.1 1.9 19 0 0 0 0
2448	1107835 321 2959 2959 0.1 1.9 19 0 0 0 0
2450	1108156 321 2959 2959 0.1 1.9 19 0 0 0 0
2529	1108477 321 2959 2959 0.1 1.9 19 0 0 0 0
2531	1108798 321 2959 2959 0.1 1.9 19 0 0 0 0
2610	1109119 156 2959 2959 1.1 1.9 9 0 5120 5120 26214400
2612	1109275 156 2959 2959 1.1 1.9 9 0 5120 5120 26214400
2691	1109431 321 2959 2959 0.1 1.9 19 0 0 0 0
2693	1109752 321 2959 2959 0.1 1.9 19 0 0 0 0
2772	1110073 321 2959 2959 0.1 1.9 19 0 0 0 0
2774	1110394 321 2959 2959 0.1 1.9 19 0 0 0 0
2853	1110715 321 2959 2959 0.1 1.9 19 0 0 0 0
2855	1111036 321 2959 2959 0.1 1.9 19 0 0 0 0
2934	1111357 321 2959 2959 0.1 1.9 19 0 0 0 0
2936	1111678 321 2959 2959 0.1 1.9 19 0 0 0 0
3015	1111999 321 2959 2959 0.1 1.9 19 0 0 0 0
3017	1112320 321 2959 2959 0.1 1.9 19 0 0 0 0
3096	1112641 321 2959 2959 0.1 1.9 19 0 0 0 0
3098	1112962 321 2959 2959 0.1 1.9 19 0 0 0 0
3177	1113283 321 2959 2959 0.1 1.9 19 0 0 0 0
3179	1113604 321 2959 2959 0.1 1.9 19 0 0 0 0
3258	1113925 321 2959 2959 0.1 1.9 19 0 0 0 0
3260	1114246 321 2959 2959 0.1 1.9 19 0 0 0 0
3339	1114567 321 2959 2959 0.1 1.9 19 0 0 0 0
3341	1114888 321 2959 2959 0.1 1.9 19 0 0 0 0
3420	1115209 321 2959 2959 0.1 1.9 19 0 0 0 0
3422	1115530 321 2959 2959 0.1 1.9 19 0 0 0 0
3501	1115851 321 2959 2959 0.1 1.9 19 0 0 0 0
3503	1116172 321 2959 2959 0.1 1.9 19 0 0 0 0
3582	1116493 321 2959 2959 0.1 1.9 19 0 0 0 0
3584	1116814 321 2959 2959 0.1 1.9 19 0 0 0 0
3663	1117135 321 2959 2959 0.1 1.9 19 0 0 0 0
3665	1117456 321 2959 2959 0.1 1.9 19 0 0 0 0
3744	1117777 321 2959 2959 0.1 1.9 19 0 0 0 0
3746	1118098 321 2959 2959 0.1 1.9 19 0 0 0 0
3825	1118419 321 2959 2959 0.1 1.9 19 0 0 0 0
3827	1118740 321 2959 2959 0.1 1.9 19 0 0 0 0
3906	1119061 321 2959 2959 0.1 1.9 19 0 0 0 0
3908	1119382 321 2959 2959 0.1 1.9 19 0 0 0 0
3987	1119703 321 2959 2959 0.1 1.9 19 0 0 0 0
3989	1120024 321 2959 2959 0.1 1.9 19 0 0 0 0

